76
 energy: -110.057806153843 gnorm: 0.000105554044 xtb: 6.7.1 (edcfbbe)
C            4.75113884300132        4.13602352694066       -0.91603152552563
C            3.62122350630288        3.99250249620817       -0.12908598779936
C            3.10310544476626        2.73529890815557        0.12204760134338
C            3.70362564543856        1.60276462248406       -0.41645386576651
C            3.16773924278690        0.22518046877104       -0.07938738228146
C            1.65449494418614        0.18402044078260       -0.02576852603360
C            0.90062691401689        0.89688863580986       -0.95129389684251
C           -0.47879593223048        0.82320575186129       -0.93985427920657
C           -1.15127020478420        0.03172922517807       -0.01490297383246
Si          -3.04145626812810       -0.05179537479926        0.03795906523596
C           -3.76671633134261        0.59005000573770       -1.59070973956253
C           -3.86219495277816        1.95870863993340       -1.82812613133052
C           -4.37783065556682        2.44341642563984       -3.01616733234701
C           -4.81110045471720        1.56222047959390       -3.99298071613642
C           -4.72584033807217        0.19788680844744       -3.77262693289880
C           -4.20768141042538       -0.28015965635497       -2.58227493419737
C           -3.69589641425899        1.02841982748096        1.45135043605036
C           -5.01898409405557        1.46207796876986        1.45060065452363
C           -5.51911121272414        2.23250822235563        2.48438925761382
C           -4.69911689101938        2.58652761385376        3.54291509376798
C           -3.37934421788134        2.16813367216304        3.55761344713250
C           -2.88598042581303        1.39664895728399        2.52072463012112
C           -3.55950979766697       -1.85455285958900        0.30549786687340
C           -4.66173331449460       -2.18585317456790        1.08669723608543
C           -5.04691739461423       -3.50381762246983        1.25508093018076
C           -4.33204899738402       -4.51839813194058        0.64115462312776
C           -3.22985788305954       -4.20700850657316       -0.13752651826839
C           -2.85004108996063       -2.88744406719108       -0.30137268355031
C           -0.38677869881479       -0.69501701506835        0.89278392680368
C            0.99335393641241       -0.62553289209944        0.88902072461645
C            3.83401276852593       -0.22051914494037        1.20828410253940
C            3.79868004258486        0.38033672641039        2.44831873237688
C            4.51006701211446       -0.19974831247557        3.48989887820882
C            5.24668261562766       -1.35722255852971        3.28953727556182
C            5.29042722660408       -1.96258779287218        2.04419132820966
C            4.58124241087142       -1.38870129463728        1.00199690701442
C            4.44009313496091       -1.78905169704863       -0.38838433384814
C            4.96103934250609       -2.87105648868020       -1.07856021495462
C            4.65528831397530       -3.01067151106533       -2.42258500085394
C            3.84196648232323       -2.08914366150469       -3.06435229733257
C            3.31659874695354       -1.00313643946249       -2.37713618599911
C            3.62383306591717       -0.85481457746401       -1.04161535977520
C            4.84414181569950        1.75370268947334       -1.19394035667830
C            5.36121791436161        3.01248745439239       -1.44534252006090
H            5.15490564557520        5.11813433229655       -1.11328828315246
H            3.14076459019192        4.86351516634372        0.29263865273482
H            2.21713803056598        2.63367543802841        0.73233646377526
H            1.39744171916646        1.52412636902534       -1.67807162133598
H           -1.04694777371170        1.38717802110897       -1.66602647611289
H           -3.53160071549554        2.65067816471050       -1.06575598896139
H           -4.44407883998820        3.50945691036462       -3.18198645281324
H           -5.21590208711659        1.93805487602669       -4.92164892128557
H           -5.06547250363188       -0.49390427439339       -4.53040552161015
H           -4.14777974893261       -1.34620290563928       -2.41382237885866
H           -5.66139912628435        1.19509170083615        0.62270933873184
H           -6.54927274375844        2.55911574086655        2.46591703970344
H           -5.08708738403077        3.18857733085104        4.35194437161662
H           -2.73432806949877        2.44456415725344        4.37967795765996
H           -1.85388433478247        1.07607810968798        2.53600934401797
H           -5.22089790865330       -1.39868165312975        1.57243357948435
H           -5.90584241532859       -3.74171101567720        1.86644524643546
H           -4.63125319660745       -5.54856455419062        0.77064631024139
H           -2.66613667633146       -4.99501552267501       -0.61661905059608
H           -1.98529418351387       -2.64998465628383       -0.90561668132746
H           -0.88324825542201       -1.33218712089117        1.61156223414249
H            1.56173099233565       -1.20335028129373        1.60384729158498
H            3.22838935382249        1.28278608878428        2.61095597838967
H            4.48993914262075        0.25733624274186        4.46839518853944
H            5.79352232564249       -1.79029112441350        4.11450164880221
H            5.86658667815594       -2.86283462292613        1.88989665733957
H            5.59214422682009       -3.59167444170018       -0.57993030385110
H            5.05324721920198       -3.84778354855355       -2.97761720983039
H            3.61378378982648       -2.21727243477579       -4.11235586864719
H            2.68295561061684       -0.28973158572237       -2.88278945312492
H            5.33116074530212        0.88257859709074       -1.60743742361078
H            6.24603442030170        3.11412510668586       -2.05677335400975
