76
 energy: -110.057801685626 gnorm: 0.000023722223 xtb: 6.7.1 (edcfbbe)
C            4.85008059168881        4.01185056769576       -0.83450453422258
C            3.71541550173616        3.88970170891842       -0.05078849215047
C            3.16943997898411        2.64304535671671        0.19381471812729
C            3.74631309715300        1.50004013140213       -0.34829862463060
C            3.17906164402164        0.13291919611134       -0.01924947469799
C            1.66541866691800        0.12839041560187        0.03636947614177
C            0.93109190154144        0.85447195573504       -0.89543089318354
C           -0.44880617519179        0.81107206927292       -0.88804040462207
C           -1.14309878912421        0.03972819803148        0.04009819382881
Si          -3.03487526687295       -0.01787891091598        0.01087875458109
C           -3.67974794502147        1.73251467449104       -0.32494563924055
C           -4.78669091154732        1.95835293918644       -1.13638938614780
C           -5.26196131009272        3.23901576360405       -1.35550539594496
C           -4.63457113380054        4.32189340646542       -0.76314639773204
C           -3.52875310360794        4.11616918805534        0.04496671355831
C           -3.05882235981943        2.83344107815452        0.25920054888964
C           -3.69790386243542       -0.63792540416255        1.67401688826451
C           -3.69604310396556       -1.99909944034518        1.96696410824420
C           -4.16512804118594       -2.46929091330391        3.17985727658450
C           -4.64889540901943       -1.58102210892766        4.12605888887363
C           -4.66112842872688       -0.22422369822373        3.85013735949731
C           -4.18908374562575        0.23946158990856        2.63520449422690
C           -3.62318445909623       -1.20087427285573       -1.34720501757585
C           -4.92305490936580       -1.69948072240742       -1.32990053110683
C           -5.37568647951050       -2.54883820432170       -2.32285658087831
C           -4.52994492560266       -2.91862378415893       -3.35547781254964
C           -3.23220854706666       -2.43692608503017       -3.38509032302096
C           -2.78640787484774       -1.58618923012072       -2.38942932475008
C           -0.39969299794650       -0.68953782090610        0.96075602939507
C            0.98255140718799       -0.65228037683571        0.95941854275887
C            3.83906282639558       -0.33689675896477        1.26286805609426
C            3.82133127123830        0.25575480089452        2.50724349630399
C            4.52413350117160       -0.34681125842620        3.54184084925901
C            5.23543153764252       -1.51805989417400        3.33028958676800
C            5.26167102000626       -2.11518280579399        2.08049486520706
C            4.56067503496211       -1.51901367350548        1.04530581500752
C            4.40647865049894       -1.90599405940009       -0.34743873287711
C            4.90269841227983       -2.99336075841362       -1.04733125809922
C            4.59011084330769       -3.11659796176547       -2.39136425009877
C            3.79447355665322       -2.17340578680308       -3.02365520626591
C            3.29436268455347       -1.08171305397755       -2.32672622109737
C            3.60814713003722       -0.94981821828270       -0.99100074407012
C            4.89176209047849        1.62928194063091       -1.12244026802550
C            5.43685772696283        2.87751358612384       -1.36712657654538
H            5.27566252825031        4.98573788889933       -1.02658793386053
H            3.25308890408969        4.76931468945855        0.37334369549120
H            2.28034880684040        2.55768808116307        0.80206721917181
H            1.44435123063211        1.46813971262006       -1.62244025784836
H           -1.00255722337086        1.39125945549478       -1.61325597678742
H           -5.27802400602352        1.11773016694574       -1.60553663608279
H           -6.12321657597202        3.39437268921560       -1.98970832682608
H           -5.00430648729509        5.32299624828160       -0.93226279459745
H           -3.03321276609759        4.95812377813197        0.50748031941736
H           -2.19180617371416        2.67817555719404        0.88645620824827
H           -3.32634041404482       -2.69718619082907        1.22850335465390
H           -4.15574065054595       -3.52972868889593        3.38884291844145
H           -5.01746541790436       -1.94570215150565        5.07405049439099
H           -5.04082482051307        0.47276639745173        4.58376684398728
H           -4.20558862628048        1.29933233623849        2.42355772517523
H           -5.58463898587711       -1.42050336472725       -0.52123891967750
H           -6.38854458376879       -2.92495767334254       -2.29254950839912
H           -4.88074547504092       -3.58250626519133       -4.13247686102032
H           -2.56671528534754       -2.72637554617110       -4.18601903515655
H           -1.77065638815886       -1.21756351828441       -2.41515011997943
H           -0.91269608520322       -1.29502415452647        1.69439212127947
H            1.53494257373941       -1.23300199208043        1.68422836801465
H            3.27067650549393        1.16872207542533        2.67861997197997
H            4.51717482153281        0.10342238929918        4.52367946284197
H            5.77621575079125       -1.96846356257355        4.14994460616908
H            5.81832260026267       -3.02609147909922        1.91739818395704
H            5.52027708044222       -3.73057541390226       -0.55609864672158
H            4.96884991300337       -3.95760868517651       -2.95387666471018
H            3.56073898562703       -2.28878204708901       -4.07192701886886
H            2.67533335714694       -0.35106904025916       -2.82575221626944
H            5.36071740737277        0.74942068971219       -1.53833392636565
H            6.32550020398190        2.96236625313758       -1.97556322213219
