76
 energy: -109.950801659575 gnorm: 0.000052683831 xtb: 6.7.1 (edcfbbe)
C            4.79465440458913        4.14131061536863       -0.90565010180139
C            3.65146946563438        4.01510084542864       -0.13420575483656
C            3.11186006733192        2.76608388066269        0.11130574839305
C            3.70446999993027        1.62473531252100       -0.41759958490476
C            3.15673892038099        0.25062669134915       -0.08358720366568
C            1.64349482214587        0.21033448196250       -0.03075627806900
C            0.88412964549079        0.92843912219190       -0.94814667590453
C           -0.49436522766263        0.84443962848343       -0.93603673030378
C           -1.16049252130365        0.03807848247524       -0.01842669336492
Si          -3.05014470015036       -0.05498150777532        0.03599339886665
C           -3.77913373973654        0.58472820098791       -1.59187160047789
C           -3.87795484185208        1.95324739544937       -1.82887223051229
C           -4.39497559899286        2.43709153166672       -3.01664252379819
C           -4.82642845499438        1.55514426000298       -3.99358054180493
C           -4.73828164714151        0.19095812344185       -3.77346651589435
C           -4.21870836639106       -0.28623959413318       -2.58338109990893
C           -3.70557483456849        1.02486947856429        1.44943641374771
C           -5.02964750984016        1.45543839394055        1.44973232176831
C           -5.53019839939486        2.22611314355536        2.48314012365887
C           -4.70960400535581        2.58351079889674        3.54005801020612
C           -3.38889258214411        2.16806041635978        3.55368425742774
C           -2.89507667879099        1.39621988753639        2.51726263488079
C           -3.56516706811158       -1.85818990599836        0.30595928005412
C           -4.66480904487864       -2.18956047450589        1.09084152079077
C           -5.04937114559944       -3.50751181657158        1.26061012568847
C           -4.33644046124306       -4.52210555866230        0.64445090562873
C           -3.23668310682598       -4.21069641944592       -0.13765370115608
C           -2.85746033414835       -2.89110010891770       -0.30290367936105
C           -0.39061266158874       -0.69359334410471        0.88114903240060
C            0.98871633583008       -0.61606784703794        0.87420652486404
C            3.82299782137241       -0.19572824491996        1.20355483255442
C            3.79843975501249        0.38408732355412        2.43114756818119
C            4.52105411408802       -0.20639724987222        3.48745106419638
C            5.27482068487758       -1.38456889000732        3.27471651106997
C            5.32693561947587       -1.98667480836138        2.05685813597592
C            4.59518197367082       -1.40885581951532        0.96387682854894
C            4.45639348348655       -1.78864931393401       -0.35164332196620
C            4.98495123270517       -2.90249071312698       -1.08929269000634
C            4.66803879255869       -3.02981602020386       -2.40510922093030
C            3.83119029076794       -2.09530442721698       -3.06009736049340
C            3.29809960081281       -0.99459739126162       -2.35988300556173
C            3.60459367779625       -0.83086296390402       -1.04707044769544
C            4.85928933796163        1.75828975848775       -1.17758615445071
C            5.39706017801190        3.00880132467620       -1.42509599154138
H            5.21535547135098        5.11736802124791       -1.09753872479618
H            3.17752774651299        4.89406365067385        0.27833865451214
H            2.21624035339642        2.67627957733551        0.70922651693840
H            1.37713719078377        1.56680439472537       -1.66777504135480
H           -1.06794316610845        1.41270227167282       -1.65454295669046
H           -3.54912419077880        2.64578196093778       -1.06624502316741
H           -4.46374853552636        3.50302268015327       -3.18210520347450
H           -5.23220576878869        1.93030051003463       -4.92209144952753
H           -5.07657206455998       -0.50138565611736       -4.53133425315370
H           -4.15603567045712       -1.35219401966170       -2.41537301386746
H           -5.67251671017823        1.18584137078690        0.62304606709167
H           -6.56114300333124        2.55028937422177        2.46555282389693
H           -5.09787624657819        3.18588638374210        4.34869705633058
H           -2.74341402659850        2.44718192970124        4.37446422356752
H           -1.86220781180361        1.07807603040703        2.53153054274934
H           -5.22259080762261       -1.40238965046659        1.57814481079077
H           -5.90636752354406       -3.74539256247589        1.87468340602503
H           -4.63518068552887       -5.55226488369351        0.77505995538771
H           -2.67445976474424       -4.99873192360401       -0.61845324191702
H           -1.99478900537331       -2.65364709799799       -0.91010541927637
H           -0.88249355021166       -1.34174272191903        1.59322258247673
H            1.56498011532496       -1.19939893591115        1.57871580473952
H            3.23116339196110        1.28541143396379        2.61188424557322
H            4.50166177956442        0.24383380695269        4.46691445218678
H            5.81876808895192       -1.80306798078326        4.10959571695682
H            5.90639050571226       -2.88159425554085        1.89115559070103
H            5.61658478392643       -3.61811198226906       -0.58625195335849
H            5.05494335658128       -3.86091583720076       -2.97752289936548
H            3.60231115279957       -2.22661543111325       -4.10547273763177
H            2.66102715643051       -0.29173390347675       -2.87659164371081
H            5.33924363584941        0.87740038896070       -1.57941760501210
H            6.29249731888653        3.09761898573486       -2.02293323630243
