  76
       -110.05777612
 C          4.7795116794        4.1193790276       -0.9235222246
 C          3.6364023620        3.9880798627       -0.1537450359
 C          3.1087700387        2.7354778027        0.1010022739
 C          3.7122529979        1.5955834614       -0.4180503331
 C          3.1675222885        0.2224734536       -0.0763317209
 C          1.6541725151        0.1869215989       -0.0287145811
 C          0.9057480529        0.8928409090       -0.9640123937
 C         -0.4740875762        0.8231421106       -0.9573209120
 C         -1.1520542553        0.0424990435       -0.0273593711
 Si        -3.0421786812       -0.0420804845        0.0248651017
 C         -3.7813551685        0.5990969598       -1.5977867564
 C         -3.8639423230        1.9676234071       -1.8409256417
 C         -4.3973171099        2.4526675679       -3.0209665703
 C         -4.8629227917        1.5720500562       -3.9833328010
 C         -4.7910245851        0.2079414341       -3.7570146508
 C         -4.2540155855       -0.2704925878       -2.5751909355
 C         -3.6972669765        1.0328700815        1.4418761591
 C         -5.0305536597        1.4338567827        1.4599572005
 C         -5.5330235992        2.1977870302        2.4973942731
 C         -4.7049175559        2.5789685987        3.5401062096
 C         -3.3747633514        2.1946484061        3.5350603789
 C         -2.8792338203        1.4287898789        2.4949850282
 C         -3.5477358772       -1.8485508735        0.2916350558
 C         -4.6172954156       -2.1938174718        1.1108827224
 C         -4.9898558935       -3.5155777926        1.2788383062
 C         -4.2956318330       -4.5195964448        0.6253236185
 C         -3.2262389590       -4.1941457573       -0.1923367359
 C         -2.8582905055       -2.8711665520       -0.3546787080
 C         -0.3929282715       -0.6776153321        0.8902099676
 C          0.9872538047       -0.6118381346        0.8913581925
 C          3.8285099451       -0.2171399376        1.2161656349
 C          3.7882064113        0.3900422947        2.4529749473
 C          4.4966370839       -0.1840005984        3.4999149253
 C          5.2358190710       -1.3412739868        3.3077165744
 C          5.2846124334       -1.9528568774        2.0655946727
 C          4.5777810827       -1.3854419889        1.0182558203
 C          4.4405964744       -1.7936604842       -0.3702441485
 C          4.9636582605       -2.8794493057       -1.0528045948
 C          4.6602131987       -3.0277169012       -2.3964458202
 C          3.8472151988       -2.1108775342       -3.0452788415
 C          3.3203690533       -1.0206631328       -2.3658895996
 C          3.6251712171       -0.8638028321       -1.0308316283
 C          4.8660555226        1.7343142544       -1.1781787825
 C          5.3932393763        2.9882813400       -1.4322297876
 H          5.1906174141        5.0978721743       -1.1236143485
 H          3.1535025068        4.8650329144        0.2526101082
 H          2.2140604339        2.6432944032        0.6999339935
 H          1.4072277258        1.5114648878       -1.6949819353
 H         -1.0379517722        1.3809560139       -1.6915903941
 H         -3.5086439066        2.6592572712       -1.0894645294
 H         -4.4528609811        3.5185546325       -3.1915959254
 H         -5.2829297013        1.9481605291       -4.9051148795
 H         -5.1569224030       -0.4833996102       -4.5028790523
 H         -4.2077456506       -1.3362073484       -2.4007992703
 H         -5.6791415116        1.1461577393        0.6438756677
 H         -6.5711347476        2.4987688805        2.4937997866
 H         -5.0947409097        3.1758068129        4.3521016948
 H         -2.7236846986        2.4918047464        4.3450577485
 H         -1.8398646167        1.1321248082        2.4963684086
 H         -5.1601057421       -1.4149597202        1.6275644901
 H         -5.8226498664       -3.7645374349        1.9210380539
 H         -4.5856836767       -5.5525550886        0.7536574334
 H         -2.6779130082       -4.9740575069       -0.7016355829
 H         -2.0171927682       -2.6227494274       -0.9873003192
 H         -0.8941329829       -1.3056801687        1.6136670576
 H          1.5511184697       -1.1826389952        1.6153001722
 H          3.2161611369        1.2926509773        2.6087832196
 H          4.4725458382        0.2778324721        4.4760898182
 H          5.7808591927       -1.7692011440        4.1365638733
 H          5.8627759176       -2.8529101926        1.9177006402
 H          5.5944444925       -3.5964824151       -0.5486176391
 H          5.0593825689       -3.8682094637       -2.9454564031
 H          3.6202150201       -2.2461300728       -4.0926461904
 H          2.6871193426       -0.3109540414       -2.8771711410
 H          5.3549068805        0.8572511318       -1.5767273978
 H          6.2869787545        3.0804980737       -2.0320851511
