52
 energy: -66.386457240025 gnorm: 0.000051701300 xtb: 6.7.1 (edcfbbe)
C           -5.28909662461575       -2.07882146011497        0.54450832903446
C           -3.93729953212599       -1.44556889657943        0.41179755669617
C           -2.90451401528835       -1.76249634231128        1.28031502038997
C           -1.64550269706056       -1.19694860366877        1.14832965738722
C           -0.57750967719230       -1.56867570405462        2.13542335167151
C           -1.38581811900693       -0.26674549734881        0.12839821789764
B            0.01302429777426        0.43199346786831       -0.00142267279996
C            0.06323829082095        1.99502346353727       -0.01139339836617
C           -0.90008120380806        2.75827398038776        0.65636549128080
C           -0.85224886168934        4.13938267549635        0.65809654084636
C            0.15369795425822        4.79936883125647       -0.02890515075933
C            1.11470700742521        4.06739978446557       -0.70725938339132
C            1.07343173855087        2.68621632466771       -0.68829535045796
C            1.36471386083713       -0.35555786383470       -0.12238754932155
C            2.43091832045734       -0.09255353567380        0.75213236822080
C            2.29934887312286        0.89752493055976        1.87600861196273
C            3.63830940396133       -0.75867564787859        0.61094985670060
C            3.83907666739075       -1.69108382008341       -0.39542026672666
C            5.14819614626947       -2.40914519343315       -0.52403274534986
C            2.78638136850328       -1.95542766257663       -1.25799434547265
C            1.56454612807332       -1.31288229440955       -1.13088938607298
C            0.47358992445974       -1.63144951035016       -2.11144946251747
C           -2.43289771998670        0.05097016740616       -0.75129593614355
C           -2.23919500634534        1.01855479391502       -1.88571464922485
C           -3.67864173235967       -0.53860350486333       -0.60491204961758
H           -5.41391499590496       -2.85607752237048       -0.21029384656502
H           -6.07592953303918       -1.34143138182152        0.39608303888990
H           -5.41209060513115       -2.53337130637030        1.52465173154530
H           -3.08375755277105       -2.47057746821909        2.07822857254151
H           -0.90995556404730       -2.38557611883839        2.77197849056251
H            0.33264964610562       -1.87027747415996        1.62226011143313
H           -0.33325486646941       -0.71855965577380        2.77164034935308
H           -1.69200837357175        2.25016061008020        1.18975318091109
H           -1.60370781935829        4.70634925833123        1.18968764394695
H            0.18859819081488        5.87944653147865       -0.03559976622772
H            1.90098660876368        4.57810866780403       -1.24547756287604
H            1.83076292684105        2.12151971531018       -1.21496327162342
H            2.85960633862609        0.55890380145582        2.74603132725968
H            1.26201797275852        1.04569291303429        2.16049976937671
H            2.70475708280334        1.86295912988040        1.57179818707788
H            4.44285981520080       -0.54392288316664        1.30157930376517
H            5.97888856129500       -1.73749850486917       -0.31613343495761
H            5.19541748173217       -3.23078425854036        0.19180170140473
H            5.26927905183544       -2.82240923551661       -1.52262737583332
H            2.92057677071838       -2.68275329295347       -2.04740328560150
H           -0.45353992566330       -1.86506824514566       -1.59330750446298
H            0.75202199123640       -2.47866207462254       -2.73417284922152
H            0.28402411986302       -0.77818839288628       -2.76199260819902
H           -2.57711697466390        2.01218884458334       -1.58999510012234
H           -2.82438828134953        0.71004488437425       -2.75045380229052
H           -1.19529807206246        1.09349982941050       -2.17492520208963
H           -4.46785978698815       -0.28378925285884       -1.29960045385690
