  52
        -66.38647045
 C         -5.2256783181       -2.3932377435        0.2621569623
 C         -3.8984788858       -1.7016543274        0.1860078717
 C         -2.8996754493       -1.9908840910        1.1063195089
 C         -1.6590320824       -1.3795905905        1.0464370939
 C         -0.6274245630       -1.7259933822        2.0803658611
 C         -1.3803813379       -0.4285463275        0.0485336114
 B         -0.0004001426        0.3162449913        0.0009085386
 C          0.0021786421        1.8802256259        0.0008115497
 C         -1.0184147840        2.6101624278        0.6188469552
 C         -1.0122741115        3.9920159242        0.6293325518
 C          0.0079460583        4.6859482218       -0.0007226516
 C          1.0252809096        3.9872573556       -0.6301654298
 C          1.0257525588        2.6054677148       -0.6181209718
 C          1.3777739538       -0.4318272918       -0.0469202985
 C          2.3875096903       -0.1463253631        0.8830243432
 C          2.1773324448        0.8374625668        2.0004648239
 C          3.6172826129       -0.7860148746        0.8085221244
 C          3.8925720319       -1.7119671947       -0.1828583612
 C          5.2220514501       -2.3983851122       -0.2684528642
 C          2.8939825239       -1.9971110018       -1.1048090634
 C          1.6550875567       -1.3823337839       -1.0457001803
 C          0.6251726212       -1.7222178551       -2.0836616908
 C         -2.3900085133       -0.1399162927       -0.8806318389
 C         -2.1775306758        0.8408682105       -2.0001834901
 C         -3.6215602914       -0.7758277955       -0.8050568975
 H         -5.9422428341       -1.9369931831       -0.4165615133
 H         -5.6235547160       -2.3490829372        1.2747281949
 H         -5.1178048022       -3.4443113899       -0.0068002798
 H         -3.0972908418       -2.7146214003        1.8856388130
 H         -0.9896071089       -2.5156086448        2.7349255758
 H          0.2934307817       -2.0586567201        1.6062778032
 H         -0.3890818667       -0.8565141780        2.6912608139
 H         -1.8218654977        2.0752817131        1.1068404371
 H         -1.8074231129        4.5330858800        1.1231161589
 H          0.0102566253        5.7666340617       -0.0012787678
 H          1.8225415394        4.5245077090       -1.1246270376
 H          1.8267072949        2.0667444268       -1.1062015112
 H          2.6549640677        0.4814800265        2.9121076199
 H          1.1227267489        1.0040771886        2.1974780472
 H          2.6263337265        1.7968694805        1.7411005424
 H          4.3752976373       -0.5524724328        1.5443139738
 H          5.7000839775       -2.1809048236       -1.2232554008
 H          5.8815601970       -2.0722516418        0.5320700893
 H          5.0971588782       -3.4785496105       -0.1987596727
 H          3.0905743784       -2.7209152444       -1.8843779816
 H          0.9749540784       -2.5299474302       -2.7219682892
 H          0.4142335574       -0.8570700125       -2.7108598363
 H         -0.3079002145       -2.0249628952       -1.6144627244
 H         -2.6428382806        1.7954690561       -1.7524981113
 H         -2.6383319639        0.4732889374       -2.9159093827
 H         -1.1226609563        1.0197466384       -2.1842813849
 H         -4.3795428845       -0.5397419917       -1.5399383469
