65
 energy: -105.567120499167 gnorm: 0.000028293911 xtb: 6.7.1 (edcfbbe)
C           -6.76964829499499        0.47404006819638        2.02218825756492
C           -5.44904775136785        0.14680585960592        1.32605381317662
C           -4.39510340271539       -0.14407559319981        2.41361525133392
C           -5.56055164097083       -1.05790719784609        0.40782890225279
C           -6.62691831436798       -1.94331279206159        0.39750405983243
C           -6.65514868826688       -3.01217604087852       -0.48278658401778
C           -5.62743748380998       -3.19553448010804       -1.39058400496231
C           -4.55986584741077       -2.31774681086104       -1.40526218683325
C           -4.51114047746610       -1.27228497351199       -0.49130279120974
N           -3.45830143656837       -0.33414539873291       -0.51426678662207
C           -2.13029887278641       -0.67120441763442       -0.39799294549712
C           -1.75599098196806       -2.04152802515917       -0.26769979008805
C           -0.45637724824917       -2.42333819153588       -0.15659441870770
C            0.57649143538105       -1.45867347714169       -0.15037112764284
N            1.85229622845217       -1.83243494019048       -0.06257598886338
C            2.77323576682632       -0.88132127002438       -0.02427351623489
C            4.16577175807836       -1.25812695219441        0.06517408996995
C            4.49985529874241       -2.61183748185086        0.10226295816222
C            5.82489403121378       -3.00471538396051        0.18761476570512
C            6.16450317554901       -4.37640492990946        0.22542183938967
N            6.44958413212734       -5.48638651569409        0.25647429530528
C            6.83395809756944       -2.03329241061895        0.23656386129295
C            6.50526479704349       -0.69992637639586        0.20020916247001
C            5.17261970232905       -0.27037295254124        0.11433154273176
C            4.80648194439518        1.13575436238591        0.07506950157321
C            5.75995528796498        2.16410867750393        0.12188879195135
C            5.39729450667057        3.48849807437645        0.08221579903612
C            4.04432308204139        3.84222671537389       -0.00716022035594
C            3.67200953153009        5.20517514101000       -0.04922560789484
N            3.37906396608612        6.31304438616134       -0.08357864898144
C            3.07981269048268        2.84926907217189       -0.05419058799665
C            3.44798861901581        1.50538502846595       -0.01388226414837
C            2.41245778933799        0.49404131395076       -0.06629453204081
N            1.15260687279622        0.87758942045362       -0.15554714309288
C            0.20880788994359       -0.07707626701523       -0.20718125453181
C           -1.13794251871438        0.28989625986508       -0.31765309056113
C           -3.92951099504930        0.99623148529722       -0.45482877791076
C           -3.46696654572283        1.96294703742640       -1.33810079487029
C           -3.97763529128847        3.24627923002518       -1.28230027173029
C           -4.96606846847306        3.55374667180396       -0.36470278843359
C           -5.46114546368950        2.57581332536249        0.48157027595829
C           -4.95578259189281        1.28544574453398        0.44962058801616
H           -7.55139448671384        0.68861025273839        1.29697884056362
H           -6.64559121206969        1.33408624834312        2.67534673476170
H           -7.08186443318705       -0.36081584358946        2.64464530476614
H           -3.42386605844169       -0.37666530657670        1.98586216396641
H           -4.28310448071712        0.72481327468782        3.05865983339315
H           -4.71368715632771       -0.99011991911026        3.01914523289729
H           -7.45104776032347       -1.81119330137348        1.07930549482587
H           -7.49148596981043       -3.69446073616626       -0.46772382829822
H           -5.66119913757688       -4.01168501994739       -2.09617656070321
H           -3.77034800612152       -2.42770801182765       -2.13390606366075
H           -2.52963846844770       -2.79198157026392       -0.22617718553565
H           -0.18529967791830       -3.46271841096188       -0.05588812232665
H            3.70312146147016       -3.33841754904162        0.06291225719034
H            7.86689669532386       -2.34150481295855        0.30280070912915
H            7.30646825114675        0.02019203553829        0.23963999445340
H            6.80956716706300        1.92845355951208        0.19079179067026
H            6.14871846455142        4.26340353308219        0.11928989674870
H            2.03047753451549        3.09124206878097       -0.12247027729199
H           -1.36206469755701        1.34335393239350       -0.31723482410795
H           -2.72497962444193        1.70234704064039       -2.07729369274754
H           -3.61153067167826        3.99943468384164       -1.96318339416545
H           -5.36676814530682        4.55488153966255       -0.31610796167525
H           -6.24877726348707        2.83547096660633        1.16986186656573
