65
 energy: -105.523406103914 gnorm: 0.000185358248 xtb: 6.7.1 (edcfbbe)
C           -6.78305480024873        0.54856560725884        2.00098052374917
C           -5.46576389960165        0.18229403488330        1.31819391936480
C           -4.41973028597789       -0.09836035316252        2.41620650216378
C           -5.59263147267767       -1.04318110848302        0.43042594504465
C           -6.67218074707318       -1.91229752741467        0.43990476280854
C           -6.71514600909346       -3.00222826987161       -0.41343184710827
C           -5.68922597643204       -3.22186957380695       -1.31531266556089
C           -4.60815143869490       -2.36158161984434       -1.34895025947621
C           -4.54333959016102       -1.29585587829862       -0.45943363681450
N           -3.47740484959048       -0.37480207856539       -0.50236513505146
C           -2.15118232023978       -0.73683909704724       -0.39926575094907
C           -1.77414302933744       -2.08377995886875       -0.27708665343103
C           -0.44949040746711       -2.44609269609365       -0.16304560669616
C            0.57057591715756       -1.49977810461015       -0.16618809975460
N            1.86147095815423       -1.80340419793633       -0.08142341226160
C            2.81133990663744       -0.88747209911288       -0.02975385185455
C            4.19414853712708       -1.24198515939479        0.03129001419091
C            4.54062502235771       -2.59848715402981        0.02424764577641
C            5.86452986546429       -2.98555388560768        0.08695949222731
C            6.20837597857052       -4.35480353145358        0.07965469295503
N            6.49518914869533       -5.46535598277516        0.07263420440447
C            6.87475634727138       -2.00729927823100        0.15868273817978
C            6.54146644371871       -0.67950285434464        0.16649873624366
C            5.20363723566754       -0.24717273268630        0.10355799682287
C            4.82834812753477        1.14009782023292        0.10840687482586
C            5.76535584732746        2.18697631439845        0.18797040522983
C            5.38495105245984        3.50204950799450        0.18415194357959
C            4.01986720133541        3.83875800943384        0.09901306462714
C            3.62741626871798        5.19488600067258        0.09001320691929
N            3.31560970449396        6.29871435056036        0.08371642518108
C            3.07180067073025        2.83862102457604        0.02402549466582
C            3.45514492468408        1.49123412887354        0.02752878702324
C            2.43958064273351        0.49060043893688       -0.04793085808524
N            1.16234884995181        0.80853903706810       -0.16979480491480
C            0.19205844813560       -0.10169524859557       -0.23211976988002
C           -1.14730332464169        0.23583312584234       -0.32084389618978
C           -3.92189898973629        0.96215974525546       -0.47351185052978
C           -3.43080737209597        1.90420976196052       -1.36972178928704
C           -3.91548400764386        3.19842281498506       -1.34290390535748
C           -4.90734728824067        3.54261338143180       -0.44217872585641
C           -5.42953165765797        2.59085583173799        0.41828071760387
C           -4.95027304889179        1.29065309339323        0.41665313910758
H           -7.55860167474546        0.75792481545535        1.26764990635705
H           -6.64693927585341        1.42233116168496        2.63319539270259
H           -7.11129130346008       -0.26526997641623        2.64264753516973
H           -3.45423396252323       -0.36682550343514        1.99645216884790
H           -4.28868502201430        0.78697820284595        3.03480284694122
H           -4.75808629252664       -0.91814512360407        3.04646365504350
H           -7.49552162419042       -1.75038499117562        1.11620817921930
H           -7.56144948957804       -3.67155445904334       -0.38310730597376
H           -5.73521243940312       -4.05295341173102       -2.00255903221084
H           -3.82251815846452       -2.49895227972888       -2.07669141300672
H           -2.52551148208778       -2.85478594811532       -0.24181557441023
H           -0.17619902050691       -3.48617534126722       -0.07851271201746
H            3.75203033009623       -3.33410942274567       -0.02985675899497
H            7.90812795775707       -2.31656036666256        0.20691381293745
H            7.33761933341814        0.04528561536598        0.22119215333078
H            6.81739515650812        1.96133065253977        0.25484047363121
H            6.12127718072724        4.28934384367316        0.24518626598373
H            2.02052071143139        3.07688122747665       -0.03935677276498
H           -1.39368418015511        1.28398411357233       -0.27640901263822
H           -2.68914056005655        1.61367420187447       -2.09830815675704
H           -3.52726895052698        3.93113694792292       -2.03377421096256
H           -5.28904143424126        4.55192710893696       -0.41723263823813
H           -6.21706498772921        2.87996993264806        1.09481805887294
