65
 energy: -105.527424893249 gnorm: 0.000074240355 xtb: 6.7.1 (edcfbbe)
C           -7.44766778177866       -0.84227361829953       -0.06758275591362
C           -6.30949649131164        0.19323071566715        0.00183267632035
C           -6.88985187616816        1.61772315763747        0.08116586480511
C           -5.49233856118432       -0.06719388086428        1.25078794200912
C           -6.10129941869473       -0.00450437194753        2.49644613534274
C           -5.40062735084860       -0.23127280457594        3.66673543978571
C           -4.04912124840156       -0.52855971547481        3.60497072856742
C           -3.41794079090482       -0.59759388410047        2.38290418647949
C           -4.12538284143974       -0.37159034852087        1.19562746086451
N           -3.46535262989205       -0.45005866009835       -0.01464007831720
C           -2.07901020281305       -0.78019932025203       -0.02305571681127
C           -1.69004875265598       -2.11579309170510       -0.05781543433830
C           -0.34884463511716       -2.44708996274731       -0.06443103551033
C            0.63307013287437       -1.45730865112446       -0.03751607386124
N            1.93480831412661       -1.74294531893000       -0.04216396615888
C            2.86013263944670       -0.79433163853108       -0.01690756548962
C            4.25210783744809       -1.12222786895441       -0.02188139993824
C            4.62635881756245       -2.47096658661725       -0.05237165638598
C            5.95965790663326       -2.82954710002729       -0.05802349177529
C            6.33283912195702       -4.19118047643575       -0.08845202482893
N            6.64393406405505       -5.29480143254692       -0.11322408121027
C            6.95083430831438       -1.83036852037037       -0.03311976996115
C            6.59001498771133       -0.50959281298823       -0.00316055691022
C            5.24215400396002       -0.10674171427085        0.00376942062499
C            4.83808883289873        1.27378996920921        0.03537791415753
C            5.75673718906720        2.33891093717626        0.06149951494530
C            5.34936921023363        3.64606098590890        0.09138654683817
C            3.97592297730981        3.95429755154193        0.09664510935406
C            3.55681915044148        5.30246624945108        0.12740481467127
N            3.22443674354767        6.39989155247457        0.15245223214279
C            3.04562424754134        2.93437114231872        0.07166320318005
C            3.45669370992416        1.59636034693761        0.04103530227815
C            2.46008316915337        0.57074286627858        0.01551189740215
N            1.16943089577627        0.87273854483464        0.02107889025394
C            0.22687298503021       -0.07080215757553       -0.00317057166821
C           -1.13143858026256        0.23356194230906        0.00404194579052
C           -4.10817209334100       -0.23402559016036       -1.21739965672758
C           -3.38563759696384       -0.33217380213025       -2.41299691172509
C           -3.99893095879345       -0.12137925780974       -3.62792880892275
C           -5.34762629550537        0.19112185005429       -3.67407117518641
C           -6.06439893271358        0.28644270997261       -2.49547156325621
C           -5.47370715408839        0.07916195992702       -1.25671012154996
H           -7.03230462309515       -1.84663273854214       -0.12480939624211
H           -8.06828177542075       -0.67732284341921       -0.94362889660696
H           -8.08000922920442       -0.78225008540364        0.81353566804975
H           -6.08174525731413        2.34498640061585        0.13005757959599
H           -7.49699105892821        1.83764203449959       -0.79225483766109
H           -7.51031112319474        1.73434773375534        0.96506433656972
H           -7.15316121467188        0.22779901837728        2.56235975268496
H           -5.90553528450419       -0.17507941538138        4.61865706812063
H           -3.48633573058606       -0.70632558708096        4.50861599588757
H           -2.36509437877606       -0.82794293313919        2.33718685646755
H           -2.44357257827858       -2.88798468953850       -0.07870567688044
H           -0.03374196892949       -3.47789573342418       -0.09083730196537
H            3.85096887097702       -3.22197881985760       -0.07114321180617
H            7.99178753380867       -2.11719101485514       -0.03788492765236
H            7.37258637767000        0.23163149797185        0.01543567635541
H            6.81540844170552        2.13554806043562        0.05819065007194
H            6.07200651886362        4.44810209423707        0.11104754101795
H            1.98773902382000        3.14984179708269        0.07517567406065
H           -1.43550505960028        1.26803577398319        0.03065275561237
H           -2.33550603769926       -0.57652710447657       -2.37942232614812
H           -3.42454841220340       -0.20118942211713       -4.53820983864308
H           -5.83838326939263        0.35866516632465       -4.62029077409808
H           -7.11453496681183        0.52942909654351       -2.54917139309675
