73
 energy: -114.197339206353 gnorm: 0.000037997396 xtb: 6.7.1 (edcfbbe)
C          -10.20344413858533       -1.17111166851822       -0.02174763132368
C           -9.62533236060334       -0.42674154135885       -1.03842536100803
C           -8.26608295535240       -0.17956375370303       -1.03519076368755
C           -7.45037118918811       -0.68370378734657       -0.01814331212701
C           -6.00985332476444       -0.42708680679881       -0.01410587990301
C           -5.09449354069970       -1.52158911502057       -0.01538319321401
C           -5.53430200829189       -2.84715707392716       -0.09689797755420
C           -4.64647699181321       -3.91631987088403       -0.00129384325280
C           -3.30307496059644       -3.67491943515030        0.19055886379044
C           -2.83169315305298       -2.36331244646346        0.21825373257121
C           -3.69036093677284       -1.27269871793070        0.05565649628773
C           -3.20416861053443        0.07200782678880        0.00381416178988
C           -1.77259747298220        0.32763357502274        0.01425544956935
C           -1.19984266962474        1.20619625611400        0.94505895804118
C            0.15649220773906        1.44351502257868        0.96274405235108
C            0.99126317579252        0.82737240744578        0.03015152291324
N            2.36926967639041        1.08073705385700        0.03518069853016
C            2.95873254282499        2.33009818608788        0.05771753334539
C            2.37188386178583        3.58784942075715        0.04188487353098
C            3.20636794171710        4.68940806309929        0.04254798928727
C            4.59362959951063        4.55290250022251        0.04896988461336
C            5.18537978164389        3.30548230943328        0.03848513965278
C            4.36550056730837        2.18390913130528        0.03803797076099
C            4.62291230152969        0.77449262608200        0.00619913900718
C            5.76938211340776       -0.00868925215704       -0.00858426552328
S            7.42462006350191        0.55180838528780       -0.01836927234200
C            8.00687361382383       -1.10142229526244       -0.03660359514159
C            9.33549750685630       -1.48992873021855       -0.05398048284859
C            9.62576994113467       -2.84132328197780       -0.06717036289233
C            8.60355021871425       -3.78592421956388       -0.06291515956503
C            7.28008873351256       -3.39547923877238       -0.04566082561206
C            6.96049211037277       -2.03969063024487       -0.03190988595279
C            5.66645816077637       -1.40878787198465       -0.01374078497358
C            4.40534136337317       -2.01621222622369        0.01345781741430
C            3.25383342936571       -1.26203265812627        0.02634085000357
C            3.36459315978081        0.12805856810609        0.00331360046839
C            0.43540076435789       -0.04117001152053       -0.90957364266111
C           -0.91814710067372       -0.29426592757809       -0.90733451444766
C           -4.12367574731554        1.16662634421251       -0.05779310201322
C           -3.69149216924668        2.48702615495665       -0.20940823354754
C           -4.58612943815981        3.55577670904845       -0.18648734434541
C           -5.93274274223636        3.31869303947755       -0.01271912520459
C           -6.39886080642319        2.00860001103230        0.06960316831844
C           -5.52830692248515        0.91604339975218       -0.00522891252974
C           -8.04587380583175       -1.43848823030012        0.99657162251933
C           -9.40732523992851       -1.67312800761606        0.99615961435370
H          -11.26711310069230       -1.35905725365640       -0.02288261546231
H          -10.23838533044370       -0.03833516838469       -1.83934458416378
H           -7.81620622341593        0.38650273927944       -1.83857866966367
H           -6.58528276672206       -3.04851957430219       -0.23758212836750
H           -5.02101520672718       -4.92763844054391       -0.06152170159575
H           -2.60805063425521       -4.49336935325726        0.30796745316477
H           -1.77827500752637       -2.19167015024755        0.37754008091676
H           -1.83188956969630        1.66657070140809        1.69018295424957
H            0.58490388786212        2.09072996422260        1.71360324503637
H            1.29940507306221        3.70579787526502        0.01849009977780
H            2.77350653882427        5.67903435608452        0.03393610606952
H            5.21150342121233        5.43866079938271        0.05210684116677
H            6.25941346882292        3.19546503453634        0.02578677900016
H           10.12076013142450       -0.74923628845627       -0.05723069662477
H           10.65577559217700       -3.16513313165768       -0.08092874847238
H            8.85134974449415       -4.83716342974178       -0.07352642125478
H            6.49144674894821       -4.13273922725007       -0.04289533040463
H            4.34211458627021       -3.09330687864643        0.02941671133734
H            2.28658227349931       -1.73789570045660        0.06581586092841
H            1.07151310228101       -0.49466978720602       -1.65533745509495
H           -1.34043487389570       -0.94514769057530       -1.65878515499472
H           -2.64157300081184        2.68961216228352       -0.35459795753043
H           -4.21426308405089        4.56420770791651       -0.29320690410628
H           -6.63362787690032        4.13859468435191        0.04347749111373
H           -7.45658424660652        1.83495454690638        0.19585698224705
H           -7.43083057767708       -1.81595538514638        1.80129114823990
H           -9.85163964163063       -2.24867204403113        1.79583419771370
