  94
       -139.23524010
 C          5.7786507240        0.6343375639       -0.5256806554
 C          5.5319172779       -0.7393646541        0.1246979577
 C          6.8535398354       -1.3375010005        0.6391177555
 C          4.9414569351       -1.6603011419       -0.9258498439
 C          5.7113172704       -2.0081629279       -2.0279654331
 C          5.2186686118       -2.7938510094       -3.0526039202
 C          3.9078348067       -3.2297146405       -2.9949125724
 C          3.1207616674       -2.8961196000       -1.9127967020
 C          3.6244081391       -2.1281874086       -0.8596697385
 N          2.8186393091       -1.8295445241        0.2341028593
 C          1.4150677689       -1.8952583048        0.1134358831
 C          0.7054878103       -3.0717902081        0.0643157645
 C         -0.6903597805       -3.0753106518       -0.0814661940
 C         -1.4053920955       -1.9021676789       -0.1276426900
 N         -2.8100420995       -1.8424649440       -0.2428087031
 C         -3.6060386866       -2.1356294705        0.8599247577
 C         -3.0904899499       -2.8930033400        1.9149791462
 C         -3.8668201725       -3.2203674786        3.0066703305
 C         -5.1790632761       -2.7897309205        3.0718547424
 C         -5.6839437263       -2.0157103952        2.0443595528
 C         -4.9244741302       -1.6730753850        0.9334145528
 C         -5.5289724155       -0.7651706816       -0.1202712394
 C         -6.8413814989       -1.3859519988       -0.6314141389
 C         -5.7961173252        0.6073370097        0.5245193339
 C         -4.5946071686       -0.5653403071       -1.2947162861
 C         -5.0087628872        0.1874482552       -2.3859921516
 C         -4.1987762817        0.3874275138       -3.4882016336
 C         -2.9470495409       -0.2022395953       -3.5241141420
 C         -2.5121092835       -0.9488946663       -2.4504734743
 C         -3.3085698656       -1.1068971233       -1.3117615734
 C         -0.7042884110       -0.6707694726       -0.0444674094
 N         -1.3824346780        0.4854374081        0.0087912750
 C         -0.7200500698        1.6158983907        0.0491775000
 C         -1.5339494544        2.8226965224        0.2217543175
 C         -2.7686196269        2.8919049803       -0.4215359147
 C         -3.5711805436        4.0054575726       -0.2636955122
 C         -3.1574814099        5.0521188608        0.5446503514
 C         -1.9407515543        4.9775316677        1.2038076336
 C         -1.1293477263        3.8697656711        1.0463350534
 C          0.7094839576        1.6202688465       -0.0561476325
 C          1.5151984788        2.8328183168       -0.2261134321
 C          1.1009104844        3.8817884912       -1.0434295268
 C          1.9048212902        4.9953334204       -1.1981238443
 C          3.1237682682        5.0738685481       -0.5436110018
 C          3.5472159749        4.0254245608        0.2572904345
 C          2.7519662831        2.9063541773        0.4126581160
 N          1.3789905027        0.4937027992       -0.0178126629
 C          0.7080179689       -0.6668586015        0.0328342027
 C          3.3101289615       -1.0968972853        1.3081604024
 C          2.5093059827       -0.9489307471        2.4450930015
 C          2.9373950592       -0.2060669634        3.5240502742
 C          4.1854588040        0.3915933934        3.4940469372
 C          4.9994660397        0.2024657623        2.3928662438
 C          4.5934861107       -0.5487976462        1.2975214796
 H          4.8338127872        1.0556050582       -0.8638011372
 H          6.4426646260        0.5435960365       -1.3813396680
 H          6.2265107142        1.3220452293        0.1869274513
 H          7.5734881352       -1.4484997997       -0.1661691072
 H          6.6703559570       -2.3180870496        1.0744436810
 H          7.2991157599       -0.7032301551        1.3997201211
 H          6.7253792917       -1.6460106947       -2.1015750833
 H          5.8471824089       -3.0491342495       -3.8919365169
 H          3.4935080960       -3.8299415155       -3.7914647261
 H          2.0947868991       -3.2264217627       -1.8919885503
 H          1.2282873614       -4.0139587861        0.1378957305
 H         -1.2088346630       -4.0199613205       -0.1533865210
 H         -2.0632083856       -3.2187345436        1.8886906501
 H         -3.4421457300       -3.8091540642        3.8060909425
 H         -5.7992015791       -3.0402967651        3.9187998581
 H         -6.6999998664       -1.6599370060        2.1215557404
 H         -7.5578707108       -1.5072860371        0.1755670414
 H         -7.2979929741       -0.7606323493       -1.3929961137
 H         -6.6425941444       -2.3643177111       -1.0649339172
 H         -6.2547438417        1.2854276192       -0.1903425899
 H         -4.8574181484        1.0440733985        0.8601785586
 H         -6.4582543687        0.5106237855        1.3808915353
 H         -5.9882420629        0.6414175847       -2.3774730488
 H         -4.5463081459        0.9872165090       -4.3156334471
 H         -2.3095815398       -0.0830120354       -4.3877240601
 H         -1.5391780463       -1.4162870076       -2.4870626078
 H         -3.0778516616        2.0673945665       -1.0459247927
 H         -4.5229886035        4.0565080029       -0.7716538688
 H         -3.7849444263        5.9224633602        0.6669937302
 H         -1.6234173368        5.7850567371        1.8468774267
 H         -0.1895826433        3.8060517759        1.5752343798
 H          0.1594934151        3.8153509084       -1.5689719970
 H          1.5793850368        5.8048603719       -1.8345690424
 H          3.7448445727        5.9491894698       -0.6629504439
 H          4.5006606632        4.0796407596        0.7617758676
 H          3.0682614753        2.0806345021        1.0318587138
 H          1.5388101551       -1.4217631903        2.4762037554
 H          2.2974937373       -0.0959954330        4.3870489806
 H          4.5272763928        0.9891529425        4.3253907363
 H          5.9755413213        0.6637290632        2.3887956659
  94
       -139.23521326
 C          5.8382686313        0.5700056559        0.8880393312
 C          5.5613824579       -0.7916525619        0.2248100217
 C          6.8772370899       -1.4464613513       -0.2325697119
 C          4.6862031161       -0.5630906606       -0.9893971748
 C          5.1685389735        0.1850580963       -2.0554719293
 C          4.4187702284        0.4038880104       -3.1960011477
 C          3.1605381345       -0.1636343144       -3.2973168198
 C          2.6583639878       -0.9052330193       -2.2498231440
 C          3.3922449317       -1.0798216750       -1.0720756035
 N          2.8285882631       -1.8067116676       -0.0301826604
 C          1.4202804623       -1.8730936312       -0.0016199052
 C          0.7106649567       -3.0505249305        0.0000714354
 C         -0.6919676570       -3.0559295013        0.0480427096
 C         -1.4107248422       -1.8840722172        0.0399606096
 N         -2.8198720802       -1.8281547265        0.0512269582
 C         -3.4011890672       -1.0960010028        1.0797528252
 C         -2.6875409558       -0.9191841118        2.2694918536
 C         -3.2071040151       -0.1746502056        3.3063467587
 C         -4.4627220807        0.3941650542        3.1814758273
 C         -5.1920127683        0.1749381566        2.0278709155
 C         -4.6920093251       -0.5763457769        0.9721332787
 C         -5.5427110727       -0.8003460172       -0.2601745343
 C         -6.8726197855       -1.4467855306        0.1672323468
 C         -5.7958285028        0.5631077167       -0.9292081074
 C         -4.8519940839       -1.7004618408       -1.2664307362
 C         -5.5289194887       -2.0612570804       -2.4240264987
 C         -4.9422484822       -2.8294325587       -3.4116506647
 C         -3.6293746859       -3.2345947929       -3.2568204073
 C         -2.9343248152       -2.8893422487       -2.1169821584
 C         -3.5335996236       -2.1391576585       -1.1016130032
 C         -0.7071719631       -0.6515905173        0.0049266498
 N         -1.3798552079        0.5034828859       -0.1045469644
 C         -0.7173592852        1.6348454234       -0.0994372789
 C         -1.5163509814        2.8385239898       -0.3460332111
 C         -1.0450683084        3.8837082866       -1.1369492522
 C         -1.8435581521        4.9875885149       -1.3694082512
 C         -3.1133102291        5.0602077957       -0.8190072779
 C         -3.5922217627        4.0154887829       -0.0448549954
 C         -2.8025721808        2.9057422168        0.1871220933
 C          0.6991321273        1.6412977635        0.1197918376
 C          1.4880303053        2.8532205434        0.3580718826
 C          2.7767847014        2.9239662103       -0.1685019352
 C          3.5574237896        4.0414819254        0.0564049483
 C          3.0667099391        5.0910953778        0.8164278933
 C          1.7942503834        5.0155086354        1.3600498953
 C          1.0049953914        3.9034804638        1.1351271735
 N          1.3706390937        0.5152174337        0.1333336825
 C          0.7072860679       -0.6458710671        0.0312026847
 C          3.5627600033       -2.1185581466        1.1088263226
 C          2.9792389150       -2.8619527166        2.1382901370
 C          3.6952990245       -3.2091794701        3.2644738456
 C          5.0136347227       -2.8122445648        3.3914486390
 C          5.5847137461       -2.0492332694        2.3906490715
 C          4.8867751925       -1.6870081280        1.2461541515
 H          6.3429637781        1.2393103587        0.1963060330
 H          6.4629506740        0.4516676821        1.7694972993
 H          4.8987573460        1.0297715985        1.1890139069
 H          6.6687592547       -2.4099140340       -0.6941933430
 H          7.5483299175       -1.6060474758        0.6063039607
 H          7.3908271936       -0.8229924758       -0.9586245588
 H          6.1555734076        0.6183533456       -1.9969781100
 H          4.8186345712        0.9991256920       -4.0027554890
 H          2.5700081307       -0.0315988102       -4.1918448672
 H          1.6813353356       -1.3564179810       -2.3396591616
 H          1.2386320137       -3.9920847148       -0.0333674893
 H         -1.2125160941       -4.0014744918        0.0852038920
 H         -1.7123307251       -1.3707083841        2.3762724794
 H         -2.6324443920       -0.0411503141        4.2109648287
 H         -4.8760230067        0.9917241512        3.9797310851
 H         -6.1763336856        0.6115264666        1.9499232013
 H         -7.3894818283       -0.8300468419        0.8966354107
 H         -7.5332169872       -1.5833279099       -0.6838864436
 H         -6.6824695121       -2.4205338902        0.6147963972
 H         -6.3981990451        0.4486744435       -1.8265133772
 H         -4.8466617994        1.0185178326       -1.2052452264
 H         -6.3147425315        1.2342946045       -0.2499350448
 H         -6.5439422413       -1.7248425721       -2.5705419986
 H         -5.4995344578       -3.0950270716       -4.2968070439
 H         -3.1409709962       -3.8175662623       -4.0234450477
 H         -1.9050929261       -3.1952416890       -2.0210400971
 H         -0.0624876206        3.8214284781       -1.5814786601
 H         -1.4743205032        5.7939553116       -1.9856662581
 H         -3.7305715273        5.9277313421       -0.9993749609
 H         -4.5849377461        4.0646961097        0.3777640738
 H         -3.1619904882        2.0822411022        0.7855284634
 H          3.1451592116        2.0967606412       -0.7562572077
 H          4.5523595063        4.0931341680       -0.3606293792
 H          3.6770451363        5.9646021935        0.9914836258
 H          1.4156832800        5.8259132098        1.9652371264
 H          0.0204897935        3.8391267798        1.5749643233
 H          1.9461899468       -3.1612673496        2.0637933053
 H          3.2188675884       -3.7868929286        4.0425257459
 H          5.5873785801       -3.0797261680        4.2654431655
 H          6.6045751972       -1.7189532298        2.5159137478
  94
       -139.23516165
 C          5.8926523652        0.5347362649        0.8704590227
 C          5.5759236048       -0.8236986301        0.2185980983
 C          6.8714300720       -1.5174691489       -0.2399992878
 C          4.7012690670       -0.5806674148       -0.9932334755
 C          5.1936215891        0.1605129753       -2.0596201692
 C          4.4453066867        0.3930770472       -3.1982848002
 C          3.1779968791       -0.1542297387       -3.2977373653
 C          2.6665942065       -0.8902357934       -2.2507531968
 C          3.3996590248       -1.0782741550       -1.0745105874
 N          2.8282380432       -1.7996894833       -0.0331890128
 C          1.4194898320       -1.8620320693       -0.0096060608
 C          0.7090801270       -3.0390935115       -0.0128725941
 C         -0.6933852900       -3.0433829383        0.0324427263
 C         -1.4108204893       -1.8705767779        0.0275311940
 N         -2.8200557038       -1.8158471869        0.0432933264
 C         -3.4004748705       -1.0957301807        1.0805755028
 C         -2.6777505041       -0.9118518356        2.2637915119
 C         -3.1980064380       -0.1786180453        3.3083344209
 C         -4.4636993263        0.3704376392        3.1987661375
 C         -5.2015361960        0.1430279029        2.0522559977
 C         -4.7003450341       -0.5956738113        0.9882813423
 C         -5.5631149964       -0.8329791789       -0.2331536254
 C         -6.8669428785       -1.5204307159        0.2108101435
 C         -5.8657484540        0.5277453042       -0.8869180244
 C         -4.8643877866       -1.7072098239       -1.2564511458
 C         -5.5449400649       -2.0670603482       -2.4121223296
 C         -4.9535044007       -2.8139581034       -3.4131516001
 C         -3.6326434469       -3.1982885508       -3.2735976663
 C         -2.9339948233       -2.8539554900       -2.1356692217
 C         -3.5376063300       -2.1255497260       -1.1070567367
 C         -0.7065458476       -0.6387420798       -0.0050902496
 N         -1.3775627998        0.5172329659       -0.1161090072
 C         -0.7139574117        1.6478330517       -0.1077338665
 C         -1.5098034317        2.8518053654       -0.3623642254
 C         -1.0288161384        3.8979738576       -1.1461551976
 C         -1.8245848797        5.0017594852       -1.3881038513
 C         -3.1017867166        5.0730223442       -0.8550936211
 C         -3.5905695614        4.0271375960       -0.0885970872
 C         -2.8031757449        2.9179622449        0.1534970974
 C          0.7016260880        1.6525544017        0.1198742827
 C          1.4896892556        2.8631297257        0.3671245577
 C          2.7831217387        2.9337263133       -0.1481287378
 C          3.5623603540        4.0507088160        0.0842959471
 C          3.0655058466        5.1001762940        0.8406623201
 C          1.7886427666        5.0244171025        1.3738519487
 C          1.0009595396        3.9127161606        1.1415560837
 N          1.3719732659        0.5259214235        0.1329213567
 C          0.7079997658       -0.6343856213        0.0246183054
 C          3.5550314920       -2.1108985920        1.1106963980
 C          2.9586914110       -2.8373072369        2.1449567081
 C          3.6668460122       -3.1837767637        3.2763683635
 C          4.9902421671       -2.8039524135        3.4035011261
 C          5.5745407577       -2.0584769846        2.3972318902
 C          4.8841253437       -1.6959414393        1.2482510149
 H          6.5100119949        0.4058604017        1.7553922710
 H          4.9667412363        1.0259876079        1.1636296136
 H          6.4208347024        1.1817735964        0.1750957373
 H          6.6363249038       -2.4854479001       -0.6784240505
 H          7.5481584932       -1.6746917055        0.5945610242
 H          7.3901228746       -0.9219001879       -0.9854845481
 H          6.1880097551        0.5770121233       -2.0027030755
 H          4.8530750145        0.9828832381       -4.0050524127
 H          2.5876753376       -0.0115176007       -4.1908320681
 H          1.6827521373       -1.3262937125       -2.3402634176
 H          1.2372801976       -3.9805345127       -0.0458834539
 H         -1.2158122304       -3.9880387079        0.0651777145
 H         -1.6949300132       -1.3488179840        2.3601101889
 H         -2.6161179066       -0.0396460725        4.2075029441
 H         -4.8781820027        0.9582815653        4.0035088232
 H         -6.1942843235        0.5621936991        1.9868793925
 H         -7.3935489552       -0.9193856910        0.9464262977
 H         -7.5328260679       -1.6789258118       -0.6323459720
 H         -6.6407056035       -2.4872564193        0.6566143631
 H         -6.3949347472        1.1778881379       -0.1952281189
 H         -6.4771330807        0.4030781218       -1.7766490139
 H         -4.9343050841        1.0129813600       -1.1725854984
 H         -6.5672875453       -1.7477510723       -2.5457245926
 H         -5.5137451215       -3.0794426087       -4.2965293911
 H         -3.1409430904       -3.7645056046       -4.0506280904
 H         -1.8989795919       -3.1435083434       -2.0511494323
 H         -0.0403874862        3.8369619644       -1.5775850297
 H         -1.4472008598        5.8089208908       -1.9983532941
 H         -3.7174331550        5.9399564443       -1.0435904426
 H         -4.5891380930        4.0752591195        0.3202314098
 H         -3.1701960936        2.0935262345        0.7460560737
 H          3.1562553976        2.1066751235       -0.7332425620
 H          4.5606544885        4.1024388070       -0.3246691335
 H          3.6747989778        5.9732939178        1.0215125784
 H          1.4050044419        5.8344801672        1.9763019544
 H          0.0130025370        3.8482832111        1.5736443258
 H          1.9220515547       -3.1236154699        2.0699140251
 H          3.1806538766       -3.7483396384        4.0580222370
 H          5.5578127714       -3.0710852014        4.2817337511
 H          6.5991795341       -1.7424712094        2.5211538372
  94
       -139.23321221
 C          5.7787591041        0.6295505159        0.9049828989
 C          5.5219727688       -0.7915713130        0.3706789663
 C          6.8511805209       -1.4847650026        0.0216789042
 C          4.6848756309       -0.6850392925       -0.8863648526
 C          5.2026704648       -0.0533230744       -2.0098539380
 C          4.4857192579        0.0521304114       -3.1870198746
 C          3.2256351649       -0.5153214548       -3.2652256181
 C          2.6884541979       -1.1411734484       -2.1611985298
 C          3.3882941339       -1.1968836039       -0.9516140733
 N          2.7862443235       -1.8055302190        0.1437915471
 C          1.3767601868       -1.8294439662        0.1492306672
 C          0.6324103272       -2.9805331657        0.2570797558
 C         -0.7689064947       -2.9349589635        0.2692128947
 C         -1.4499857173       -1.7475529981        0.1442377700
 N         -2.8621740443       -1.6882302812        0.1346490168
 C         -3.5530783459       -1.7682820189        1.3337228141
 C         -2.8720678434       -2.0907379051        2.5115591276
 C         -3.5394950436       -2.2049052138        3.7127919862
 C         -4.9050931081       -1.9930891087        3.7647010406
 C         -5.5772436475       -1.6474703587        2.6070598370
 C         -4.9296092431       -1.5227970220        1.3855643594
 C         -5.7221952601       -1.0953199482        0.1653235266
 C         -6.8512651829       -2.1129710148       -0.0782699504
 C         -6.3099248303        0.3024992304        0.4317695514
 C         -4.8553825867       -1.0249910055       -1.0762773418
 C         -5.4265851972       -0.6637830411       -2.2889371373
 C         -4.6905694167       -0.6025012996       -3.4571174341
 C         -3.3474796328       -0.9320286168       -3.4271328064
 C         -2.7575411186       -1.2961883841       -2.2360211371
 C         -3.4904331175       -1.3210119384       -1.0462596056
 C         -0.7136872059       -0.5442041987       -0.0005475071
 N         -1.3424488761        0.6186719087       -0.2336630804
 C         -0.6358562681        1.7156917231       -0.3623413195
 C         -1.3723590553        2.9081948352       -0.7894570340
 C         -0.8195682780        3.8261782010       -1.6799867969
 C         -1.5537085430        4.9246522615       -2.0850676524
 C         -2.8415651169        5.1183094953       -1.6118829850
 C         -3.4047338772        4.1965731889       -0.7439619346
 C         -2.6781361743        3.0935623824       -0.3398570967
 C          0.7803967160        1.6953089909       -0.1325414970
 C          1.6166818219        2.8949405298       -0.0319624145
 C          2.9062918006        2.8540180158       -0.5596711653
 C          3.7310655402        3.9580745773       -0.4618428658
 C          3.2842645938        5.1059195231        0.1728128364
 C          2.0107876434        5.1433676449        0.7182112504
 C          1.1772150222        4.0454700430        0.6187969061
 N          1.4071325919        0.5548114297        0.0182777881
 C          0.7015016936       -0.5859823535        0.0377003550
 C          3.4895652900       -2.0140342924        1.3259322656
 C          2.8731266864       -2.6506483100        2.4062939912
 C          3.5576940950       -2.8944537504        3.5782548931
 C          4.8769059119       -2.4985461275        3.6996289757
 C          5.4804429031       -1.8398891904        2.6452977226
 C          4.8144662763       -1.5827243595        1.4541256957
 H          4.8304372783        1.1164413160        1.1245644301
 H          6.3097311755        1.2273117802        0.1688263978
 H          6.3707734466        0.5992737563        1.8158988225
 H          7.3820463531       -0.9415246362       -0.7545599434
 H          6.6579801430       -2.4940727642       -0.3370438653
 H          7.5007566357       -1.5472836243        0.8896615606
 H          6.1906998377        0.3798009719       -1.9679337801
 H          4.9120573810        0.5601673153       -4.0386326436
 H          2.6614291222       -0.4724590289       -4.1850715563
 H          1.7098634612       -1.5931105926       -2.2295097614
 H          1.1301473407       -3.9367841709        0.3195067198
 H         -1.3271531174       -3.8549225087        0.3624101500
 H         -1.8046276124       -2.2454379359        2.4858616373
 H         -2.9892987014       -2.4573904869        4.6070834046
 H         -5.4408280900       -2.0847102909        4.6970309870
 H         -6.6397456847       -1.4653311047        2.6645705652
 H         -7.5059866245       -2.1829743771        0.7857355976
 H         -7.4523865246       -1.8281978497       -0.9370924034
 H         -6.4266119546       -3.0969795049       -0.2681237270
 H         -6.9088927972        0.6374478057       -0.4105278403
 H         -5.5027426406        1.0163793292        0.5836612593
 H         -6.9378519006        0.2985488183        1.3186319669
 H         -6.4776006183       -0.4203262227       -2.3292076285
 H         -5.1641061278       -0.3112887510       -4.3822562724
 H         -2.7581550277       -0.9112677546       -4.3318483126
 H         -1.7133998441       -1.5686306250       -2.2247720449
 H          0.1762328445        3.6684676931       -2.0674785940
 H         -1.1190074770        5.6316647472       -2.7760936723
 H         -3.4081717085        5.9820813023       -1.9264166432
 H         -4.4133561541        4.3376014763       -0.3841896475
 H         -3.1025484476        2.3622553004        0.3311595573
 H          3.2405890594        1.9519540949       -1.0492263382
 H          4.7261245009        3.9221749405       -0.8802713092
 H          3.9292589984        5.9686807532        0.2486188709
 H          1.6660579576        6.0316779811        1.2264702777
 H          0.1909618690        4.0717325595        1.0590527463
 H          1.8390426465       -2.9466755104        2.3349572640
 H          3.0562556341       -3.3904872648        4.3958218194
 H          5.4261973497       -2.6855438964        4.6095135463
 H          6.5000252130       -1.5066522482        2.7647274601
  94
       -139.23213747
 C          5.8253060607        0.5251675011       -0.5237818113
 C          5.5206581545       -0.8467630738        0.1055309794
 C          6.8147744188       -1.5039516761        0.6179772772
 C          4.9001075909       -1.7283179318       -0.9614162854
 C          5.6631680616       -2.0934163980       -2.0627646184
 C          5.1455974765       -2.8430478175       -3.1020784748
 C          3.8165454081       -3.2221101595       -3.0608396476
 C          3.0356819617       -2.8701740080       -1.9800235140
 C          3.5638649195       -2.1407927134       -0.9115248452
 N          2.7635289322       -1.8224826252        0.1811012689
 C          1.3596271185       -1.8355897843        0.0561450221
 C          0.6097381725       -2.9854097649       -0.0192777818
 C         -0.7849518298       -2.9307686964       -0.1605452607
 C         -1.4559650050       -1.7329932414       -0.1878717390
 N         -2.8672844490       -1.6900152883       -0.2822920853
 C         -3.5916143577       -1.7731782324        0.9056146662
 C         -2.9363687577       -1.8491822047        2.1335643622
 C         -3.6539954070       -1.8904310866        3.3120754159
 C         -5.0347136631       -1.8358836219        3.2810389480
 C         -5.6894650643       -1.7689981632        2.0628324101
 C         -4.9919106419       -1.7541408882        0.8661912809
 C         -5.6636472349       -1.8068840864       -0.4902209232
 C         -5.5924128017       -3.2697837144       -0.9814602413
 C         -7.1333353766       -1.3899756565       -0.4403424872
 C         -4.8471423741       -0.9745752099       -1.4591559710
 C         -5.4089477211       -0.2397599749       -2.4899600850
 C         -4.6248292772        0.3596001889       -3.4616910693
 C         -3.2538817558        0.1854909575       -3.4331161720
 C         -2.6690420927       -0.5175905367       -2.3986409451
 C         -3.4490635554       -1.0530073942       -1.3750019237
 C         -0.7173679266       -0.5289191026       -0.0616977526
 N         -1.3509327771        0.6499162429        0.0450061816
 C         -0.6449664624        1.7506458001        0.1305975396
 C         -1.4021826474        2.9831558848        0.3646471334
 C         -2.6426045594        3.1340189216       -0.2527829024
 C         -3.3849963467        4.2809387901       -0.0474385675
 C         -2.9058445910        5.2792868741        0.7855378091
 C         -1.6854333826        5.1218970099        1.4228696900
 C         -0.9335472888        3.9809018783        1.2164468585
 C          0.7838952521        1.7054794669        0.0096575854
 C          1.6334587187        2.8923931145       -0.1246652617
 C          1.2550330307        3.9821114097       -0.9053811500
 C          2.0978594904        5.0707920536       -1.0257862260
 C          3.3202138668        5.0840629383       -0.3728883809
 C          3.7077323374        3.9950811430        0.3912062258
 C          2.8736918513        2.9001080308        0.5114392113
 N          1.4098141438        0.5543199046       -0.0002193736
 C          0.6954094846       -0.5814034528        0.0127040891
 C          3.2795120831       -1.1315546531        1.2715610159
 C          2.4811328337       -0.9739031339        2.4089510976
 C          2.9323310788       -0.2659020603        3.5016929718
 C          4.2023386593        0.2842847891        3.4860237539
 C          5.0139278192        0.0803964319        2.3857910599
 C          4.5839564912       -0.6360574656        1.2762339796
 H          4.8995981237        0.9897569728       -0.8582461467
 H          6.4880484811        0.4199603115       -1.3788301985
 H          6.2981273030        1.1833386413        0.2003849726
 H          7.5344939673       -1.6321093379       -0.1850724564
 H          6.5903036416       -2.4824067217        1.0386464920
 H          7.2805461048       -0.8980710066        1.3895662366
 H          6.6926741184       -1.7753347786       -2.1230059386
 H          5.7693960957       -3.1135951780       -3.9401324206
 H          3.3822256826       -3.7892278152       -3.8705471179
 H          1.9956867586       -3.1539467711       -1.9735820617
 H          1.0972222420       -3.9472127866        0.0375400681
 H         -1.3460449502       -3.8513737965       -0.2236712943
 H         -1.8579087069       -1.8667055677        2.1676934860
 H         -3.1297611588       -1.9527194250        4.2541883968
 H         -5.6036111216       -1.8541801415        4.1981225070
 H         -6.7667891010       -1.7381453737        2.0613670859
 H         -6.1347341914       -3.9202635756       -0.2981541571
 H         -6.0320191179       -3.3537242484       -1.9733380374
 H         -4.5600106029       -3.6060560939       -1.0325943548
 H         -7.5850195320       -1.4814803446       -1.4245338187
 H         -7.2347840489       -0.3635675930       -0.0949998306
 H         -7.6891056724       -2.0452962461        0.2249852368
 H         -6.4793045631       -0.1330087824       -2.5580559144
 H         -5.0880064865        0.9296089834       -4.2528269883
 H         -2.6327276442        0.6022574758       -4.2123820271
 H         -1.5982267436       -0.6493459142       -2.3908690560
 H         -3.0040072648        2.3445456343       -0.8948794756
 H         -4.3411438255        4.3953058225       -0.5364172193
 H         -3.4858382045        6.1762825277        0.9445338879
 H         -1.3179176480        5.8911239290        2.0859285717
 H          0.0093628059        3.8535916140        1.7280251639
 H          0.3101752182        3.9672880231       -1.4289213761
 H          1.8002775836        5.9120762913       -1.6339837051
 H          3.9719326547        5.9401728570       -0.4652232698
 H          4.6637946068        3.9982128000        0.8936442060
 H          3.1622914562        2.0435381748        1.1016052085
 H          1.4941504795       -1.4118688472        2.4295972438
 H          2.2935647517       -0.1457493484        4.3641345477
 H          4.5626273278        0.8557456218        4.3279450790
 H          6.0075156451        0.5027401395        2.3934089626
