  47
  -72.0794252146000       0.620203319041117      !
 C          2.0658980763       -2.7548431693       -0.3312229722
 C          1.1817078375       -1.7434343661        0.4374086949
 C          1.2841551246       -1.9133570671        1.9672301173
 C          1.5548729284       -0.3200580358        0.0484910952
 C          0.5592539567        0.5833275677       -0.2713870902
 C          0.8630411575        1.7986654402       -0.9245717442
 C          2.1535724144        2.1697813308       -1.1279708686
 C          3.2065118443        1.3796493773       -0.6226377322
 C          4.5385391370        1.8285851862       -0.7167686061
 C          5.5681705259        1.0968383421       -0.1981155619
 C          5.2863530070       -0.1109941160        0.4510381709
 C          4.0049256180       -0.5832568008        0.5331986634
 C          2.9109937657        0.1249790788       -0.0197861971
 N         -0.7928531860        0.2905483313       -0.0401493805
 C         -1.7246386273        1.2797780829        0.2195818319
 C         -1.3521774554        2.5013849635        0.7945794922
 C         -2.2937212523        3.4752012182        1.0405962018
 C         -3.6337837053        3.2652218638        0.7283429615
 C         -4.0208874701        2.0514971939        0.2109729827
 C         -3.0855286019        1.0435229263       -0.0329409780
 C         -3.5486432354       -0.2683645623       -0.4995896806
 O         -4.6747547286       -0.4671140336       -0.9278818762
 C         -2.5522819065       -1.3334965774       -0.3374265190
 C         -2.9563058942       -2.6667064276       -0.3993285631
 C         -2.0420226007       -3.6740542184       -0.2017711479
 C         -0.7125592461       -3.3584186667        0.0495167003
 C         -0.2686158744       -2.0472106094        0.0895834668
 C         -1.2046202182       -1.0254165299       -0.0961934735
 H          1.5321240927       -3.1175925539       -1.2072301182
 H          2.3192117068       -3.6067066064        0.2950283329
 H          2.9858999073       -2.3061874748       -0.6878256394
 H          2.2833991463       -1.7067099809        2.3369012500
 H          0.5965275144       -1.2243371933        2.4554154268
 H          1.0068806559       -2.9264945320        2.2504845336
 H          0.0513806775        2.4071536376       -1.2930999687
 H          2.3870108809        3.0808900188       -1.6582071793
 H          4.7244197450        2.7784257713       -1.1974761026
 H          6.5870823686        1.4469218537       -0.2676552723
 H          6.0923413561       -0.6741994329        0.8986308573
 H          3.8418550433       -1.5039608286        1.0663370409
 H         -0.3216145065        2.6697964013        1.0692590108
 H         -1.9851976121        4.4070981322        1.4909375784
 H         -4.3610411368        4.0407086177        0.9125965492
 H         -5.0548476159        1.8332693408       -0.0105912612
 H         -3.9987919481       -2.8695215939       -0.5903621866
 H         -2.3501248521       -4.7080136965       -0.2306474478
 H         -0.0161472057       -4.1622806980        0.2304257236
  47
  -72.0789617732000       0.379796680958883      !
 C          1.9886689968       -2.6634036005       -0.5949526672
 C          1.1970830617       -1.7595672119        0.3783868860
 C          1.4946378469       -2.0988864407        1.8608067796
 C          1.5481314705       -0.3152141068        0.0527740066
 C          0.5550778429        0.5861802594       -0.2781351330
 C          0.8686214402        1.8031646202       -0.9250716530
 C          2.1612312673        2.1774408718       -1.1090698623
 C          3.2079856702        1.3903166901       -0.5861339373
 C          4.5417586655        1.8376695384       -0.6563824381
 C          5.5613285904        1.1011466006       -0.1240552613
 C          5.2679566506       -0.1087790974        0.5161917265
 C          3.9843771582       -0.5787683899        0.5762254154
 C          2.9033388147        0.1341767507        0.0072693129
 N         -0.7990370016        0.2947227494       -0.0604172557
 C         -1.7295283264        1.2872994543        0.1948103400
 C         -1.3566659491        2.5161430567        0.7542846996
 C         -2.2969112466        3.4947239958        0.9863771667
 C         -3.6371385854        3.2830539803        0.6763464161
 C         -4.0260259994        2.0611758917        0.1801089463
 C         -3.0915971667        1.0487819989       -0.0486108629
 C         -3.5575771934       -0.2726344332       -0.4826220017
 O         -4.6848287762       -0.4816462779       -0.9027261850
 C         -2.5617962587       -1.3343890398       -0.2944263103
 C         -2.9739576876       -2.6658421121       -0.3111696699
 C         -2.0632982049       -3.6715090459       -0.0898879552
 C         -0.7296188889       -3.3535410365        0.1301011239
 C         -0.2752864480       -2.0444829102        0.1186163593
 C         -1.2092786921       -1.0229795848       -0.0806111278
 H          1.5490374647       -2.5943798852       -1.5887629200
 H          1.9530430739       -3.7012952051       -0.2768013704
 H          3.0287841522       -2.3667828331       -0.6714741635
 H          2.3295618760       -2.7888283394        1.9534464443
 H          1.7234049238       -1.1975365916        2.4248691061
 H          0.6277942148       -2.5686015302        2.3214435975
 H          0.0620347688        2.4090247496       -1.3087035613
 H          2.4003350240        3.0877077546       -1.6382374974
 H          4.7374591696        2.7894002127       -1.1293498754
 H          6.5817544982        1.4500299739       -0.1758683136
 H          6.0663539159       -0.6744108842        0.9742825588
 H          3.8035242542       -1.4951140218        1.1094823900
 H         -0.3268440377        2.6878053388        1.0292176109
 H         -1.9868177754        4.4321801450        1.4239366601
 H         -4.3630882097        4.0626028303        0.8482534730
 H         -5.0605851182        1.8394959020       -0.0350214299
 H         -4.0195362608       -2.8680001732       -0.4855234010
 H         -2.3765941705       -4.7041608680       -0.0798831175
 H         -0.0359993133       -4.1549517802        0.3309284063
