49
 energy: -80.717367064360 gnorm: 0.000068644238 xtb: 6.7.1 (edcfbbe)
C            5.57777736942645        1.18937081956757        0.90306076266636
C            5.19081143058403        0.00991930167619        0.00171551685951
C            5.56971398099936       -1.30477578293251        0.68827853776950
C            5.89306397160128        0.10368617811948       -1.35353691476847
N            3.74450718098201        0.02402507075930       -0.20496932453429
C            3.10262830704581        1.07879157436929       -0.86281670434229
O            3.71300561687596        1.97896772671297       -1.46149967509045
C            1.69616038291876        0.98201557453158       -0.71029090256080
C            0.71460407965132        1.84361582073396       -1.27721641612617
C           -0.60204331995588        1.56818708531649       -1.09179050137017
C           -1.02863969519587        0.44482568574530       -0.31035669568802
N           -2.37835324660543        0.17041954023392       -0.15357981166934
C           -3.36104310199297        1.08728930829059        0.15631965395431
C           -3.24455703836489        2.44298399695057        0.44117651668477
C           -4.40060091103751        3.14061876201198        0.74079929800950
C           -5.64147528332120        2.50798555651610        0.77234250452764
C           -5.75998438141630        1.14923001164846        0.52329947120842
C           -4.61669414416871        0.42982438608870        0.22100818610101
C           -4.36143897688463       -0.95941798878588       -0.05625052964309
C           -5.17065977104745       -2.07934617404869       -0.14490363978370
C           -4.58671050369410       -3.29421885470501       -0.46888486113511
C           -3.21991417934756       -3.39213394957158       -0.72005213989394
C           -2.39121657608545       -2.28778314441223       -0.63641448879870
C           -2.96573288400399       -1.07283692591542       -0.28160124049931
C           -0.06231724786784       -0.37925130100055        0.30552146930663
C            1.25032655077335       -0.08922279829848        0.11744635292808
S            2.68657644430127       -0.85904863149628        0.79327591261442
O            2.89429014949079       -0.51625365095350        2.17190661172163
O            2.74965364749320       -2.25148003772836        0.45998546559152
H            5.33450645279694        2.12517302863446        0.40498377345257
H            5.02700339131828        1.12991458770532        1.83941711101946
H            6.64382015084427        1.16532564797892        1.11252547562176
H            5.22569924660774       -2.15167476102662        0.10059224118524
H            5.11426107956470       -1.36484682594220        1.67272850881652
H            6.65082322349322       -1.35578177900313        0.79307255657120
H            5.61022724084862       -0.73744489152043       -1.98199526955111
H            5.60346040763996        1.02523250613365       -1.85498455665935
H            6.97037628472855        0.09961231626402       -1.21175317118248
H            1.04746541181556        2.67105971443747       -1.88308651616792
H           -1.36051231838031        2.15801538163139       -1.58392950507344
H           -2.28286448755963        2.93120018816897        0.44919488541065
H           -4.33884540574063        4.19459862671754        0.96400539845259
H           -6.52210954746617        3.08504986327396        1.00991654456031
H           -6.72092021574724        0.66048551286994        0.56991071988185
H           -6.23311616171130       -2.00507653057394        0.02873828812791
H           -5.20130322410715       -4.17855791324960       -0.54083663545728
H           -2.79868696317103       -4.34793021642837       -0.99063285962306
H           -1.33750180238281       -2.36732107840440       -0.85311864334163
H           -0.36425212054205       -1.18052504514303        0.96206294390244
