  49
        -80.71353071
 C          5.5717064965        1.3205689546        0.6422389108
 C          5.1890757114       -0.0242441828        0.0190891112
 C          5.5680455308       -1.1598738444        0.9789034549
 C          5.8970087881       -0.1873679353       -1.3266390981
 N          3.7438790107       -0.0451674005       -0.1910445236
 C          3.0995717634       -1.1247648779       -0.8066138034
 O          3.7052452574       -2.0552046053       -1.3547586070
 C          1.6902571506       -1.0032025941       -0.6747179765
 C          0.7080833333       -1.8789340473       -1.2134472016
 C         -0.6090286426       -1.5919558611       -1.0442586645
 C         -1.0346073603       -0.4389144970       -0.3067972036
 N         -2.3818052534       -0.1620783615       -0.1561724484
 C         -2.9730546768        1.0771976309       -0.3084048362
 C         -2.4031132772        2.2875373737       -0.6850472486
 C         -3.2350299221        3.3883565496       -0.7887443375
 C         -4.6021031440        3.2901767086       -0.5358147000
 C         -5.1827861501        2.0792096735       -0.1923774561
 C         -4.3707283797        0.9622840128       -0.0847024274
 C         -4.6226490594       -0.4212921466        0.2135927130
 C         -5.7653777052       -1.1409956214        0.5202405329
 C         -5.6430641764       -2.4941318156        0.7958709412
 C         -4.3988744518       -3.1225208254        0.7875372266
 C         -3.2436578894       -2.4252353630        0.4822111801
 C         -3.3632149132       -1.0765982974        0.1675172086
 C         -0.0648958926        0.4075390607        0.2751044379
 C          1.2468317708        0.1058826388        0.0994302399
 S          2.6851780380        0.9024704272        0.7417855457
 O          2.7603481289        2.2723676049        0.3266253158
 O          2.8758074681        0.6407861662        2.1404879998
 H          5.2409777383        2.1389229516        0.0082328058
 H          5.1064009411        1.4343045796        1.6172731277
 H          6.6520384022        1.3685527932        0.7562522711
 H          5.3173875859       -2.1172195139        0.5277753194
 H          5.0180616240       -1.0496457912        1.9110908688
 H          6.6343542241       -1.1329507752        1.1865582545
 H          5.6120903362       -1.1346253467       -1.7799665741
 H          5.6137460551        0.6183389874       -1.9996320971
 H          6.9736865661       -0.1717206638       -1.1813643583
 H          1.0400599280       -2.7297068944       -1.7867364933
 H         -1.3673347482       -2.1946634377       -1.5207645230
 H         -1.3500744300        2.3675028279       -0.9047691545
 H         -2.8166653428        4.3404890117       -1.0755225832
 H         -5.2191265658        4.1715877558       -0.6217803260
 H         -6.2450084986        2.0050107426       -0.0172971958
 H         -6.7289330391       -0.6560674677        0.5490411455
 H         -6.5231847254       -3.0705412850        1.0369306951
 H         -4.3341270850       -4.1710679594        1.0336044539
 H         -2.2801485953       -2.9091521961        0.5101518583
 H         -0.3645061647        1.2338533765        0.9008322288
