  85
  -134.195601567800       0.381625015136506      !
 C          7.6021233215        3.4108927204        0.5957812179
 C          6.4066962460        3.5360294132       -0.3478137823
 N          5.3776478394        2.5818542016       -0.0322070855
 C          4.3023157473        2.7708792754        0.8018374228
 C          3.9106189870        3.9158200797        1.4852927918
 C          2.7579637442        3.8657306210        2.2400677046
 C          1.9902613637        2.7020951976        2.3193983340
 C          2.3628736848        1.5553527576        1.6542429829
 C          3.5337013685        1.5683157134        0.8962805786
 C          4.2376838779        0.6314062496        0.0997522828
 C          5.3401202799        1.2769279782       -0.4511382717
 C          6.0163866539        0.3583177627       -1.2977601080
 C          7.1727227795        0.3932975520       -2.0728572132
 C          7.5518088037       -0.7445613050       -2.7521063100
 C          6.8109948046       -1.9213859956       -2.6545266148
 C          5.6628521941       -1.9877368492       -1.8899747243
 C          5.2486250703       -0.8420126575       -1.2264294827
 N          4.1675839877       -0.6644615583       -0.3797960253
 C          3.2061912023       -1.6040133609       -0.0271069426
 C          2.8407229205       -1.7371736911        1.3145950694
 C          1.8535300320       -2.6312478499        1.6760816133
 C          1.2382692935       -3.3980536449        0.7033351225
 S         -0.1673304897       -4.4222642811        1.1425992391
 O         -0.2380377042       -5.5605718633        0.2608530376
 O         -0.1441630554       -4.6697811448        2.5631886292
 C         -1.5075969021       -3.2933948233        0.7525520892
 C         -1.6535191928       -2.1547912320        1.5253127915
 C         -2.6082910893       -1.2195221121        1.1857907892
 C         -3.4152218893       -1.4187931903        0.0619889470
 N         -4.3470977342       -0.4473802136       -0.2818423019
 C         -5.6737253552       -0.6384604406       -0.6312738205
 C         -6.3960968328       -1.8192649491       -0.7226688088
 C         -7.7326994740       -1.7440625309       -1.0623510036
 C         -8.3559375543       -0.5188609897       -1.2936303404
 C         -7.6621153005        0.6659156827       -1.1718557810
 C         -6.3117035707        0.6213394845       -0.8351873831
 C         -5.3006978415        1.5887595423       -0.5904678751
 C         -4.1302584160        0.9190606841       -0.2488232725
 C         -3.1071659960        1.8844588770       -0.0750276592
 C         -1.7405917933        1.8538421157        0.2043039506
 C         -1.0532565592        3.0435612975        0.2904353207
 C         -1.7024635444        4.2664341439        0.1105190675
 C         -3.0479560377        4.3304474926       -0.1834190727
 C         -3.7564479088        3.1398818176       -0.2932717716
 N         -5.0754236361        2.9406228979       -0.6235630570
 C         -6.0684906398        3.9511348492       -0.8717691695
 C         -6.8496444291        4.2977950165        0.3949925691
 C         -3.2596563602       -2.5742921893       -0.7055540930
 C         -2.3016862594       -3.5077677543       -0.3574474280
 C          1.5994606680       -3.2881638008       -0.6268145597
 C          2.5867152880       -2.3958493080       -0.9964851659
 H          8.3677712933        4.1341187759        0.3284979694
 H          8.0263933712        2.4111001049        0.5335207187
 H          7.2920725565        3.5908867389        1.6226669460
 H          5.9806854815        4.5409761610       -0.2859966200
 H          6.7241353796        3.3640975021       -1.3806376612
 H          4.4899634141        4.8253182193        1.4311793991
 H          2.4377675805        4.7447804187        2.7791955719
 H          1.0885876980        2.7061235916        2.9139193523
 H          1.7549523808        0.6641770368        1.7082786857
 H          7.7680098204        1.2921429455       -2.1330716471
 H          8.4442909203       -0.7324212073       -3.3594220463
 H          7.1461770790       -2.8019879908       -3.1814467994
 H          5.1146549961       -2.9132071775       -1.7998002521
 H          3.3437072562       -1.1400431925        2.0593622637
 H          1.5609043591       -2.7629942254        2.7059725669
 H         -1.0285387140       -2.0241500547        2.3943053277
 H         -2.7494811015       -0.3329355677        1.7840677782
 H         -5.9347802268       -2.7732459878       -0.5178758423
 H         -8.3086069711       -2.6535595762       -1.1435311778
 H         -9.4024357313       -0.5012640949       -1.5584940340
 H         -8.1596951627        1.6116793263       -1.3262448199
 H         -1.2285963978        0.9115689200        0.3356203926
 H          0.0061076230        3.0350718448        0.4999487274
 H         -1.1338893564        5.1801795601        0.1975633578
 H         -3.5321123418        5.2847449906       -0.3273079573
 H         -5.5688565716        4.8412604955       -1.2627539642
 H         -6.7495760602        3.5772387256       -1.6421032924
 H         -7.3499364791        3.4125801693        0.7813781648
 H         -7.5967615873        5.0568918193        0.1793126290
 H         -6.1760448641        4.6755100547        1.1607276914
 H         -3.8670530277       -2.7178920850       -1.5855827376
 H         -2.1515748493       -4.4054367697       -0.9364253247
 H          1.0981653916       -3.9044761797       -1.3563507913
 H          2.8594519313       -2.2809740224       -2.0340638885
  85
  -134.195415697300       0.313484929279707      !
 C          7.0163762497        3.5674031203       -1.7328708332
 C          6.1799234119        3.6288755024       -0.4555095393
 N          5.1408429022        2.6343341812       -0.4531113176
 C          3.8441357933        2.7891346206       -0.8806477824
 C          3.2015487891        3.9318472094       -1.3416864085
 C          1.8682049508        3.8419396182       -1.6805580749
 C          1.1673575314        2.6405972437       -1.5633141925
 C          1.7858339860        1.4962397277       -1.1124890528
 C          3.1387377150        1.5491292757       -0.7766328789
 C          4.1044888676        0.6279502135       -0.2987745391
 C          5.2982005716        1.3168497372       -0.1083810640
 C          6.2552626734        0.4126556702        0.4245646348
 C          7.5992969387        0.4907219470        0.7804681411
 C          8.2315584985       -0.6443763250        1.2403181923
 C          7.5537378325       -1.8592251984        1.3293789906
 C          6.2218629984       -1.9676867705        0.9807287425
 C          5.5606038747       -0.8268459727        0.5495667837
 N          4.2533086046       -0.6846507910        0.1148817089
 C          3.2694398087       -1.6645243868        0.0717120758
 C          3.0614451959       -2.5181107850        1.1568376642
 C          2.0470239022       -3.4548909999        1.1101570762
 C          1.2458522542       -3.5412143015       -0.0123048218
 S         -0.1809798752       -4.6302666620       -0.0220039675
 O         -0.2392159242       -5.3626197760       -1.2629324964
 O         -0.1939298420       -5.3901972552        1.2039873441
 C         -1.5074609553       -3.4195283876       -0.0004934771
 C         -1.5351299864       -2.5030720688        1.0359608840
 C         -2.4831792016       -1.5011254025        1.0333441570
 C         -3.4006789111       -1.4092352712       -0.0169256134
 N         -4.3185037418       -0.3661395288       -0.0291446202
 C         -5.6733165499       -0.4429905130       -0.3055763931
 C         -6.4511971966       -1.5602407768       -0.5721530450
 C         -7.8047552981       -1.3804827081       -0.7779732536
 C         -8.3889101515       -0.1168510105       -0.7064890795
 C         -7.6364952962        0.9989368693       -0.4089019364
 C         -6.2678165996        0.8494247185       -0.2012441383
 C         -5.1994895649        1.7170208913        0.1500648866
 C         -4.0388594763        0.9579632328        0.2619499096
 C         -2.9668286050        1.8375030179        0.5562337752
 C         -1.5910994845        1.7094720573        0.7485661102
 C         -0.8523062777        2.8348370871        1.0364020793
 C         -1.4547960294        4.0905795106        1.1271182871
 C         -2.8090576646        4.2537429303        0.9278964658
 C         -3.5731967224        3.1304466614        0.6355566727
 N         -4.9180090537        3.0408943041        0.3677509004
 C         -5.8806689595        4.1090794371        0.4018165371
 C         -6.5460706322        4.2258800573        1.7723407740
 C         -3.3663542499       -2.3467764396       -1.0506359389
 C         -2.4154582606       -3.3496857650       -1.0390813742
 C          1.4455682225       -2.7087859289       -1.0991978079
 C          2.4615776811       -1.7760894582       -1.0633629672
 H          7.8006240813        4.3189069409       -1.7043397513
 H          6.3884731984        3.7471903539       -2.6025393437
 H          7.4737589550        2.5856770724       -1.8345902543
 H          6.8164587791        3.4587243364        0.4181522679
 H          5.7190833737        4.6147181382       -0.3533992545
 H          3.7277125672        4.8701603556       -1.4341315421
 H          1.3510442594        4.7190105324       -2.0395786956
 H          0.1198701697        2.6139899172       -1.8234088408
 H          1.2302198890        0.5759036024       -1.0093665250
 H          8.1397504258        1.4209589796        0.6885959162
 H          9.2724142973       -0.5994855203        1.5235002510
 H          8.0829030966       -2.7357200801        1.6717070513
 H          5.7176905038       -2.9209585098        1.0271633348
 H          3.6727277952       -2.4187720663        2.0402297174
 H          1.8522236731       -4.1202430604        1.9367253607
 H         -0.8188952582       -2.5911474448        1.8379792578
 H         -2.5321479525       -0.7854750171        1.8391912498
 H         -6.0170884237       -2.5480607591       -0.6013405005
 H         -8.4250099990       -2.2383151853       -0.9895642605
 H         -9.4511012224       -0.0172350688       -0.8716785919
 H         -8.1026782251        1.9694725250       -0.3275895692
 H         -1.1121651457        0.7452941376        0.6626934485
 H          0.2132800720        2.7497405116        1.1873565202
 H         -0.8435585987        4.9510283124        1.3543828523
 H         -3.2588370413        5.2327976744        0.9983322964
 H         -5.3732012514        5.0435313353        0.1480722129
 H         -6.6345033327        3.9118261538       -0.3662302569
 H         -7.0499719534        3.2956645830        2.0252847269
 H         -7.2767233265        5.0300324216        1.7678204439
 H         -5.8007616414        4.4330484135        2.5367630068
 H         -4.0618508091       -2.2634242730       -1.8712392597
 H         -2.3514720724       -4.0773213300       -1.8329196632
 H          0.8091257140       -2.8106088861       -1.9643860064
 H          2.6458749772       -1.1281275652       -1.9060227066
  85
  -134.195389426100       0.304890055583787      !
 C          6.7512286837        3.6814230454       -1.7543688613
 C          5.8656972562        3.7294642534       -0.5099261837
 N          4.8777264342        2.6843230756       -0.5205020511
 C          3.5924556944        2.7640218658       -1.0007449701
 C          2.9121946004        3.8632317778       -1.5107586192
 C          1.5980160580        3.7003023335       -1.8941804942
 C          0.9539400034        2.4679521434       -1.7761937805
 C          1.6112534509        1.3651297587       -1.2794281028
 C          2.9453758437        1.4930159230       -0.8928539084
 C          3.9348630282        0.6331720852       -0.3526491036
 C          5.0849124738        1.3852462427       -0.1345586746
 C          6.0608895905        0.5453298559        0.4650807892
 C          7.3825469164        0.7005295155        0.8753191869
 C          8.0472268880       -0.3869600321        1.3999281547
 C          7.4252191201       -1.6305070209        1.4998714006
 C          6.1173729293       -1.8156613680        1.0967457911
 C          5.4218434356       -0.7226411874        0.6004631397
 N          4.1293933256       -0.6583730666        0.1067899082
 C          3.1894339461       -1.6804410104        0.0698865955
 C          2.9814564001       -2.5026318750        1.1791070474
 C          2.0010986426       -3.4753280831        1.1401179098
 C          1.2338370681       -3.6290349463        0.0011572029
 S         -0.1812677218       -4.7329467545        0.0074268027
 O         -0.2517090649       -5.4637629929       -1.2337774631
 O         -0.1779694837       -5.4954691267        1.2320136399
 C         -1.5021747453       -3.5158494963        0.0427603501
 C         -1.5147142167       -2.6044029580        1.0840192237
 C         -2.4320758371       -1.5746328710        1.0759256847
 C         -3.3335647685       -1.4494397525        0.0153774319
 N         -4.2061883430       -0.3681957350       -0.0076511348
 C         -5.5617251843       -0.3835061066       -0.2887371127
 C         -6.3885370146       -1.4646122117       -0.5566766058
 C         -7.7319918141       -1.2237872601       -0.7665096600
 C         -8.2581652876        0.0652782856       -0.6980378390
 C         -7.4563313312        1.1464644668       -0.4017415927
 C         -6.0963081971        0.9354576894       -0.1903542169
 C         -4.9897576725        1.7545568823        0.1595677333
 C         -3.8662128521        0.9426167640        0.2785398939
 C         -2.7544115394        1.7718618430        0.5711015181
 C         -1.3874417988        1.5787542799        0.7707969694
 C         -0.5960677602        2.6693242757        1.0521249625
 C         -1.1374320920        3.9533117165        1.1296610615
 C         -2.4818789305        4.1799380958        0.9254501774
 C         -3.2988633935        3.0925005196        0.6403763163
 N         -4.6460754921        3.0650498618        0.3701136943
 C         -5.5576726724        4.1771705633        0.4048370864
 C         -6.2029126804        4.3339243744        1.7811535434
 C         -3.3223032885       -2.3877347930       -1.0178827764
 C         -2.4005850547       -3.4177285145       -1.0018437121
 C          1.4382391980       -2.8320627991       -1.1112264031
 C          2.4216566625       -1.8648808936       -1.0834072210
 H          7.4930238502        4.4745350726       -1.7174725563
 H          6.1477321406        3.8060243229       -2.6505841476
 H          7.2634645341        2.7236003644       -1.8136796154
 H          6.4769813517        3.6116306681        0.3899974139
 H          5.3530294501        4.6928836692       -0.4488880398
 H          3.3947846407        4.8244666560       -1.6056210908
 H          1.0517674561        4.5434097732       -2.2895533794
 H         -0.0806512307        2.3833797581       -2.0726453178
 H          1.0979296240        0.4206931143       -1.1770501991
 H          7.8813248503        1.6530254764        0.7759093512
 H          9.0708765464       -0.2820422766        1.7265565347
 H          7.9797259031       -2.4687057668        1.8941266905
 H          5.6583877749       -2.7910145420        1.1523142191
 H          3.5622955810       -2.3487145357        2.0751297441
 H          1.8061165237       -4.1155516949        1.9863050693
 H         -0.8086709744       -2.7158300462        1.8919746128
 H         -2.4660163062       -0.8591817602        1.8827358846
 H         -5.9990082424       -2.4709608383       -0.5839339880
 H         -8.3901259167       -2.0526627957       -0.9792775316
 H         -9.3143394390        0.2129351209       -0.8661301302
 H         -7.8780236198        2.1374857430       -0.3245500291
 H         -0.9562413424        0.5913999562        0.6966292430
 H          0.4632498913        2.5338958019        1.2101179582
 H         -0.4860249961        4.7852382168        1.3514207488
 H         -2.8838878287        5.1802071972        0.9865941536
 H         -5.0100263779        5.0852102470        0.1391860416
 H         -6.3275896038        4.0093740591       -0.3539659555
 H         -6.8968260930        5.1697806274        1.7774039274
 H         -5.4406713386        4.5135471746        2.5355097157
 H         -6.7446405755        3.4289356638        2.0464762078
 H         -4.0089313297       -2.2824427616       -1.8434819890
 H         -2.3503668694       -4.1436017990       -1.7982638051
 H          0.8296318061       -2.9880998555       -1.9881948434
 H          2.6098819936       -1.2442428009       -1.9455213012
