  95
       -147.93539420
 C         -2.1629962079       -3.2667721723        3.9081545484
 C         -2.1513756224       -2.0831746018        3.1876180459
 C         -2.4210973016       -2.0896416783        1.8325791376
 C         -2.6917274581       -3.2926477512        1.1884129828
 N         -2.9640664235       -3.3049772320       -0.1882734922
 C         -2.2509382521       -2.6926349294       -1.1995602456
 C         -0.9896641404       -1.9992118101       -0.9908363848
 C         -0.0355039953       -2.4309172653       -0.0721778375
 C          1.1045604965       -1.6823761315        0.1482280746
 C          1.3070132646       -0.4837066125       -0.5275697051
 C          2.4335364299        0.4053877726       -0.1890585619
 C          3.7402993838       -0.0497506288       -0.2529183601
 C          4.8034229556        0.8054423716        0.0207464818
 N          6.1173601745        0.3274473840       -0.0352874135
 C          7.1676818992        0.9157378678       -0.7117566031
 C          7.1796508692        2.0471219062       -1.5148887551
 C          8.3761192297        2.4069872187       -2.1049086635
 C          9.5360228478        1.6596614393       -1.9128172707
 C          9.5247517443        0.5191063685       -1.1352064426
 C          8.3338598174        0.1368893751       -0.5319068309
 C          7.9596700332       -0.9725191180        0.2998650488
 C          8.6593582889       -2.0493720290        0.8281341710
 C          7.9841653158       -2.9483304531        1.6292493735
 C          6.6325023996       -2.7751904280        1.9184495622
 C          5.9154310538       -1.7115069908        1.4051382166
 C          6.5823932129       -0.8182124896        0.5790850582
 C          4.5490508102        2.1344930441        0.3480986721
 C          3.2466324452        2.5907329437        0.4148931208
 C          2.1776319156        1.7389015603        0.1680413276
 C          0.7825758117        2.1934683783        0.2916222679
 C          0.3128666050        3.2987770656       -0.4099461852
 C         -1.0336466884        3.6121281919       -0.4149396898
 C         -1.9313835753        2.8281690416        0.3017711436
 N         -3.3122987022        3.0413102476        0.2218742365
 C         -3.9920776827        4.2203607635        0.4409306294
 C         -3.5025115929        5.4676468133        0.8000848939
 C         -4.4147273585        6.4891313634        0.9835215331
 C         -5.7828347211        6.2795218448        0.8233832964
 C         -6.2770482749        5.0352278096        0.4857703789
 C         -5.3806045950        3.9922471963        0.2945955836
 C         -5.5339020821        2.6036713478       -0.0410216376
 C         -6.6303302935        1.7994069463       -0.3256711682
 C         -6.4134609799        0.4757806452       -0.6532506918
 C         -5.1231048364       -0.0464868328       -0.7202857632
 C         -4.0175902140        0.7325118414       -0.4390832257
 C         -4.2320734154        2.0552683852       -0.0771699532
 C         -1.4521541341        1.7805978622        1.0850076067
 C         -0.1120271911        1.4650729393        1.0744058243
 C          0.3923725246       -0.1008271868       -1.5072737637
 C         -0.7372777868       -0.8521003047       -1.7433768971
 N         -2.8320484901       -2.7945097989       -2.3636440906
 C         -3.9869753267       -3.4950712462       -2.1527445080
 C         -4.9900648501       -3.8674532440       -3.0414087679
 C         -6.0735430746       -4.5510995537       -2.5327037570
 C         -6.1755696068       -4.8577139875       -1.1737383172
 C         -5.1912984422       -4.5005461292       -0.2739838465
 C         -4.0908090669       -3.8282516793       -0.7806195120
 C         -2.7069057303       -4.4808706087        1.9101149262
 C         -2.4448775136       -4.4618516384        3.2684070937
 H         -1.9554775560       -3.2570418258        4.9671595301
 H         -1.9383642563       -1.1490308552        3.6858304039
 H         -2.4256188958       -1.1725771164        1.2650813420
 H         -0.1830325320       -3.3510410212        0.4732923135
 H          1.8272291945       -2.0096965222        0.8820887176
 H          3.9372382391       -1.0688869183       -0.5501818653
 H          6.2820643292        2.6220327135       -1.6861595834
 H          8.4113929648        3.2847868247       -2.7330104686
 H         10.4520411852        1.9758272780       -2.3889655245
 H         10.4192173086       -0.0699102804       -1.0000508191
 H          9.7107281385       -2.1740854842        0.6175722523
 H          8.5087774681       -3.7942175897        2.0475555220
 H          6.1349328690       -3.4857916870        2.5618827425
 H          4.8729336781       -1.5752145336        1.6506456780
 H          5.3720090680        2.7962657159        0.5711038715
 H          3.0509841990        3.6164013417        0.6921469194
 H          1.0014735051        3.8857706385       -1.0004792170
 H         -1.3997990539        4.4379494691       -1.0062223336
 H         -2.4449266348        5.6334022931        0.9410244349
 H         -4.0599104138        7.4707405524        1.2607304075
 H         -6.4633355860        7.1043469404        0.9730692946
 H         -7.3381635630        4.8708693447        0.3741279601
 H         -7.6294510834        2.2073264779       -0.2973482967
 H         -7.2514620651       -0.1672016328       -0.8774558848
 H         -4.9884977302       -1.0771519240       -1.0115169445
 H         -3.0180410774        0.3326242717       -0.5243131268
 H         -2.1456067850        1.2166571204        1.6905906889
 H          0.2502786303        0.6410173385        1.6701394007
 H          0.5677719334        0.8017543241       -2.0728950615
 H         -1.4556697936       -0.5572398563       -2.4920963438
 H         -4.9137383821       -3.6155481803       -4.0868178846
 H         -6.8704686253       -4.8534564271       -3.1956291294
 H         -7.0479860463       -5.3857183592       -0.8187431472
 H         -5.2800322772       -4.7270616894        0.7781186197
 H         -2.9101397792       -5.4115512190        1.4015240473
 H         -2.4558391084       -5.3857872857        3.8268627931
