78
 energy: -110.644275874644 gnorm: 0.000193010873 xtb: 6.7.1 (edcfbbe)
C            6.41698129182266        1.26141542712284        3.01655184329365
C            5.91342161124240       -0.02884489393988        3.05172327340710
C            4.85974190916559       -0.38232349014657        2.22809527046214
C            4.28658996080021        0.53946082138424        1.35526136878413
Si           2.82806654488454        0.03832815576362        0.25204926527877
C            2.55328987686312        1.32711307349325       -1.11331432062165
C            1.86279847853301        2.50575940955423       -0.84240298967865
C            1.65346176621353        3.45495020670276       -1.82660397880338
C            2.13341368047489        3.24039019693700       -3.10846063457849
C            2.81930162870951        2.07216790600997       -3.39684024460364
C            3.02577574539398        1.12771287396074       -2.40659717396908
C            3.19213990081677       -1.64564974037990       -0.54358750781005
C            2.16303530069014       -2.52774475982980       -0.86017435002106
C            2.42431549457606       -3.74002760199468       -1.47381892029585
C            3.72735234895484       -4.09475876327973       -1.78217960176559
C            4.76444417578571       -3.22988009772257       -1.47310618282364
C            4.49570384351105       -2.01858017956125       -0.86084008731131
C            1.23118407649837       -0.06269130089943        1.26850169361367
C            1.22261631411226       -0.17611755742072        2.65481414920556
C            0.02750260515249       -0.26710003870365        3.34840339561217
C           -1.17555432623108       -0.24723690774264        2.66501960086470
C           -1.20385773318699       -0.12800193697416        1.27768056126909
Si          -2.84051703553005       -0.07634223246968        0.32099495046001
C           -2.48430455268143       -0.51734616745668       -1.48976435178805
C           -2.72638030593548       -1.78941527313365       -1.99850585869690
C           -2.39842023605714       -2.11125093841860       -3.30399420099643
C           -1.81607566918256       -1.16157356593229       -4.12698348551467
C           -1.57426655304674        0.11265044864229       -3.63987245659280
C           -1.90989848907902        0.42850213503762       -2.33582081106496
C           -3.57632718273335        1.67004838302902        0.38862935131319
C           -4.58373981473269        2.04599869135247       -0.49649169699885
C           -5.13697605468934        3.31324215666965       -0.45402326447514
C           -4.68747775569248        4.23405381275712        0.47856833500559
C           -3.68219428965368        3.87926964434712        1.36285791265745
C           -3.13479682573521        2.60911681020634        1.31569016367657
C           -4.03057432002456       -1.33603825211689        1.09180678525686
C           -3.56999764820880       -2.59975495764082        1.45442788755605
C           -4.42175819640057       -3.54199086538906        2.00201501742686
C           -5.75783629082495       -3.23432863703726        2.20148950229973
C           -6.23185038219457       -1.98045910528709        1.85306108970013
C           -5.37415905989822       -1.04347444111048        1.30364820378448
C            0.00844377163098       -0.03591626095191        0.60630904581101
C            4.80684287149615        1.82983397347510        1.33216211703240
C            5.86140728124317        2.19048458319375        2.15253925299027
H            7.24035849017156        1.54059948619085        3.65861794872534
H            6.34471605935968       -0.75929684040415        3.72216016776902
H            4.47548264669830       -1.39263781704051        2.25556021162879
H            1.47966334363870        2.67611841653639        0.15424744918894
H            1.11350575222884        4.36301796184002       -1.59604261921318
H            1.97102848488482        3.97987425905320       -3.88002224364236
H            3.19389483437152        1.89799396271503       -4.39606667442049
H            3.55858703572713        0.21664809434069       -2.63970246962080
H            1.14392116254924       -2.26028794576531       -0.62045382376812
H            1.61021697095213       -4.41003719369552       -1.71286211587634
H            3.93418969789426       -5.04132366579112       -2.26130426191463
H            5.78376277742536       -3.50090122737929       -1.71095969944708
H            5.30982503676248       -1.34846017146526       -0.62164396318929
H            2.15932901327077       -0.18926932978355        3.19378617898325
H            0.03435134249239       -0.35508680782102        4.42651018917768
H           -2.10602401668218       -0.32621586130160        3.21028151403501
H           -3.17991928259591       -2.53589263539907       -1.36192101891928
H           -2.59552729829452       -3.10514642347853       -3.68134520460144
H           -1.55429126754584       -1.41233133546505       -5.14519843025144
H           -1.12274751407538        0.86015439823645       -4.27717974682584
H           -1.72672613112261        1.42722255227452       -1.96464534656682
H           -4.93418464479822        1.33380176910076       -1.23085845355604
H           -5.91983022762015        3.58552381459343       -1.14833935524390
H           -5.11754580085819        5.22505673171749        0.51397223007456
H           -3.32454677266412        4.59527616812243        2.08981900479455
H           -2.34770558272437        2.33995129782386        2.00579791381014
H           -2.52635154971808       -2.84278793524839        1.30915836203347
H           -4.04492254174151       -4.51769984352259        2.27593875409673
H           -6.42580076707329       -3.96825284683676        2.62975278375296
H           -7.27254909672522       -1.73341832731366        2.01051291403423
H           -5.75043215820277       -0.06594039304897        1.03768120492324
H            0.00234654607207        0.06334071789497       -0.47017216727300
H            4.38073898442362        2.55881212941016        0.65751396576426
H            6.25231371667645        3.19794609685669        2.11848788318599
