78
 energy: -110.515844711133 gnorm: 0.000066758189 xtb: 6.7.1 (edcfbbe)
C            6.34274576625410       -1.58051367775821        2.84231858491644
C            5.69965198544100       -0.37631276288215        3.09835869394015
C            4.60397183037250        0.00073852365817        2.35033758966960
C            4.12197261340877       -0.81763064624132        1.31998214272876
Si           2.77779085266981       -0.12492267916661        0.18188515616162
C            3.00317076239036        1.64958896927229       -0.46234778746482
C            2.07768054825150        2.67828645257613       -0.29050026959169
C            2.36889749917947        3.96851115382570       -0.68653571829854
C            3.60302704628609        4.26608543590058       -1.25077896597190
C            4.54086814630665        3.25652006025018       -1.40946767387865
C            4.24816983006242        1.96538436844358       -1.01693636622488
C            2.63498357693974       -1.25283342453985       -1.32535001475130
C            2.86127946349399       -0.81493088678918       -2.63344592510990
C            2.62070806430123       -1.63750629229307       -3.71422078326284
C            2.12941076571181       -2.92280733947341       -3.52063097369007
C            1.87330979536249       -3.36635129231181       -2.23078878010358
C            2.12254312517791       -2.54549432606465       -1.15043314979691
C            1.23557903875199       -0.00193296856841        1.30117924938389
C            1.20737946568646       -0.21727717266634        2.68261611086261
C            0.00436099470581       -0.32130821681179        3.34684406888529
C           -1.18946229898732       -0.20146574418466        2.64215021302247
C           -1.16561571677322       -0.01481134417937        1.25871808286060
Si          -2.77601680537601        0.10345217761614        0.24165907551536
C           -3.31566751690058        1.91999156727819        0.18767715923081
C           -4.16145620057428        2.36891753592567       -0.82604732277517
C           -4.57298469721301        3.68801650846369       -0.87918566205552
C           -4.14085894140295        4.58948599027103        0.08068088677787
C           -3.29453817790265        4.16136937010469        1.09158660273545
C           -2.88760071479376        2.84054582146971        1.14162122735133
C           -4.08315977319067       -0.96762933203561        1.10261577805213
C           -3.75235071458677       -2.21633349438286        1.62442365687827
C           -4.70605600914953       -3.00602771915120        2.24106074305623
C           -6.01312528793559       -2.55853883311081        2.34772539187960
C           -6.35746263017274       -1.31752948090249        1.83625026309250
C           -5.39966455310340       -0.53098417833755        1.22153231247208
C           -2.42709049532732       -0.53165669408639       -1.50630514546902
C           -1.81475227689294        0.29499640639188       -2.44832111788044
C           -1.53483159870773       -0.16016942004273       -3.72319052896502
C           -1.86500068883740       -1.45634033142671       -4.08493095408269
C           -2.47610750770558       -2.29126077978129       -3.16261590650147
C           -2.75295815729514       -1.83122883033953       -1.88858376905260
C            0.03631192222098        0.08190260909431        0.58916605398357
C            4.78800282143540       -2.01947789938532        1.06269886184324
C            5.88169206919423       -2.39544528086515        1.81375924084601
H            7.19302234666989       -1.88138966710935        3.43648866707687
H            6.05904531594284        0.27123443793681        3.88647430951379
H            4.11821161379957        0.94501832304290        2.55232822181507
H            1.11653143773005        2.46297396429771        0.15253194619346
H            1.63264609431999        4.74940380162916       -0.55539232417578
H            3.83250732270937        5.27611226775606       -1.55801860843407
H            5.50772163528537        3.47779483561719       -1.84073043323925
H            4.98777893373356        1.18682579208293       -1.14096265257925
H            3.23880299818608        0.18399823068753       -2.79819247637090
H            2.81522002609179       -1.28052332017431       -4.71637174997530
H            1.94270514448732       -3.56838667528302       -4.36651239167500
H            1.47722733427473       -4.35998922373630       -2.07100749053803
H            1.91635919427628       -2.90081112620798       -0.15021254345932
H            2.13055397193742       -0.29653949529856        3.23527980244328
H           -0.01120820152945       -0.47952815317526        4.41649988224441
H           -2.13220249363929       -0.25203223163195        3.16502585569953
H           -4.49856645762291        1.67181151599401       -1.58031179224297
H           -5.23123107413097        4.01612982976577       -1.67159023176018
H           -4.45914613253861        5.62133720885855        0.03897848138580
H           -2.95198934300351        4.86056022330354        1.84149183105616
H           -2.22476586786058        2.51480763946391        1.93059026730320
H           -2.73296834527909       -2.56835375452005        1.54967635555085
H           -4.43094046515511       -3.97208323553204        2.64076282990442
H           -6.75951111952448       -3.17265786943539        2.83097564255157
H           -7.37504963955007       -0.96236849686892        1.91886664821378
H           -5.67350246359161        0.43805839734210        0.82993402501217
H           -1.56148140618603        1.31061191995370       -2.17753571708091
H           -1.05673552518163        0.49510221977414       -4.43771533410093
H           -1.64568813886018       -1.81465972434186       -5.08047769327615
H           -2.73761537767609       -3.30270535136731       -3.44042156582917
H           -3.23515446225151       -2.48627333787035       -1.17717211391363
H            0.05270900315627        0.20465382293815       -0.48170931467994
H            4.44158195999456       -2.65954199706723        0.26506803235866
H            6.38091033160296       -3.33103039382144        1.60254767566790
