78
 energy: -110.517667882296 gnorm: 0.000033745893 xtb: 6.7.1 (edcfbbe)
C            1.55853388002787       -2.49370112256525        3.46205656726802
C            1.69765705207042       -3.11518719045830        2.23171629301763
C            2.04013924935406       -2.37207791149884        1.11678724067024
C            2.24952082686173       -0.99704373492607        1.20416864351932
Si           2.65184058704176        0.01207803506643       -0.34881100466061
C            3.23190568781736        1.75386470755364        0.13138204553886
C            2.30115390317696        2.70818837287529        0.53591868949976
C            2.69982158361033        3.97790996923260        0.91299831838239
C            4.04289567592390        4.31795710297262        0.88945774599100
C            4.98070030083593        3.38238905316718        0.48482448199460
C            4.57603286340444        2.11303964393679        0.10987006848337
C            3.98118370072364       -0.89717948555950       -1.35450286040419
C            3.91668229930649       -1.01080004938040       -2.74022887161911
C            4.90797724993074       -1.66688034317158       -3.44862130159309
C            5.98500988507238       -2.22597058253543       -2.78051214195223
C            6.06071356348222       -2.12929820051985       -1.40030378245355
C            5.06624655791568       -1.47407689621472       -0.69707478779113
C            1.04938170309188        0.23019895718946       -1.34227727138679
C            0.97781789398701        1.14531623377336       -2.42217689456906
C           -0.23478268492493        1.36331319300584       -3.07794502685389
C           -1.35916284286010        0.68310141800957       -2.68621208532777
C           -1.32242556448980       -0.11874251828112       -1.50444366449831
Si          -2.70524617155353       -0.03251754341502       -0.19304256893190
C           -4.31202940334752        0.23386350762537       -1.16747798362619
C           -4.55687307657770        1.42239022761346       -1.84487502563539
C           -5.74987204203200        1.62522882704031       -2.51609399115348
C           -6.71684402582916        0.63291139619195       -2.52288025989873
C           -6.48351381269871       -0.55753500724829       -1.85481815064864
C           -5.28909705140474       -0.75399884444022       -1.18325898699340
C           -2.49474966433386        1.31402492184082        1.10544414649597
C           -3.36832774585267        2.40049789707074        1.23461900593691
C           -3.09989154122731        3.43581765470099        2.10640754212120
C           -1.94458127741782        3.42175802555009        2.87665603481429
C           -1.06270037038744        2.35509690827294        2.76056523526167
C           -1.33004371826296        1.32203442150408        1.88744101709730
C           -2.60545809868959       -1.73391600363152        0.64334862232816
C           -2.42850304630969       -2.89093061766170       -0.11321873316686
C           -2.41801570257705       -4.13796090811903        0.48414937240336
C           -2.59001476598731       -4.25306757438826        1.85426975137675
C           -2.76839787806501       -3.11148719566166        2.62002280688212
C           -2.77535683891892       -1.86637885539809        2.01824523945558
C           -0.06777714474789       -0.45327563497934       -0.94572290752586
C            2.11021431290778       -0.39100380585175        2.44915944587199
C            1.76926077980025       -1.12885805711262        3.56905124090622
H            1.28750188164894       -3.07148524426987        4.33412725524122
H            1.53518904406068       -4.18012241508043        2.14284587753245
H            2.14848649340620       -2.86275102048355        0.15952994004253
H            1.25101001308927        2.45028287746307        0.55302172295935
H            1.96183073098308        4.70388139252402        1.22460067818549
H            4.35711672342107        5.30953314903444        1.18303389294377
H            6.02948855541077        3.64349584849299        0.46171094319558
H            5.31244655441009        1.38882470570616       -0.20801320116195
H            3.07677998906800       -0.58449759863150       -3.26849602627515
H            4.84106559397853       -1.74399584610242       -4.52481984948176
H            6.76078186350894       -2.73750397375072       -3.33220273752828
H            6.89637047128081       -2.56710793740766       -0.87234769769027
H            5.12821289407433       -1.40669703331642        0.38010405946875
H            1.87987457991292        1.61018551006870       -2.78785771831412
H           -0.26622549345311        2.00227589126132       -3.95096489587199
H           -2.27533278497734        0.76016485441901       -3.25081972970911
H           -3.80356335372779        2.19754465927561       -1.84662352158684
H           -5.92594895967208        2.55709583781766       -3.03507246948922
H           -7.64797892643797        0.78674425714668       -3.04929544042242
H           -7.23364762659482       -1.33587524748737       -1.85702317815224
H           -5.11417390304236       -1.68383988320752       -0.66171653210483
H           -4.27885665267380        2.41687795274313        0.65246513978407
H           -3.79546794041409        4.25946413888926        2.19452842353062
H           -1.73493721223087        4.23134569166419        3.56088564475713
H           -0.15984659660956        2.33677127268909        3.35535028560663
H           -0.63070735170925        0.50197383040475        1.80135070173622
H           -2.29175474193984       -2.80837971889998       -1.18235874588178
H           -2.27775234821002       -5.02410615973541       -0.11943435150030
H           -2.58434452160424       -5.22670617197686        2.32354769655464
H           -2.90214470689387       -3.19290410803652        3.68982394009209
H           -2.91356166631253       -0.98106292584201        2.62214853419823
H           -0.02372389121571       -1.15199973510320       -0.12554462729393
H            2.27252028435585        0.67377768225216        2.53785251056304
H            1.66454983410394       -0.63986180816646        4.52753204522269
