116
 energy: -179.894435002277 gnorm: 0.000037501890 xtb: 6.7.1 (edcfbbe)
C          -13.09983265828347       -2.20437056420761        0.19411975599073
C          -13.06867027774942       -0.82139621713374        0.27865192160679
C          -11.86571534912624       -0.14732037914699        0.19329649460007
C          -10.67141459761662       -0.84800211374265        0.02576435109490
C           -9.42201474984643       -0.10715886345114       -0.07021103433287
N           -9.40813537725323        1.17713534427295       -0.52731764831702
C           -8.15653675210005        1.56570521710833       -0.54327185574600
C           -7.72979439950290        2.90075203800153       -0.93292743803076
C           -8.43501062541554        3.56233600977482       -1.93820391392545
C           -8.06614179291879        4.83544294197134       -2.32803906196896
C           -6.99316302254024        5.46709500779861       -1.71880024049962
C           -6.30232521126538        4.82512549465165       -0.70405625878222
C           -6.66833302737102        3.55234019681820       -0.30703149420166
N           -7.32503741892605        0.56682021160707       -0.10835563004260
C           -5.91762934220756        0.58906800412563       -0.04873070610909
C           -5.18452793863348        0.90764926603611       -1.18720990337716
C           -3.80429101458088        0.91205494963331       -1.13686684967496
C           -3.13577896024947        0.59745043833184        0.04320117527821
C           -1.65588444474468        0.58895230048402        0.08485943545284
C           -0.96772730353509        1.62945667751331        0.72335639658499
C           -1.65298117490037        2.71822056479806        1.32500274948234
C           -0.97717431390697        3.71290653590384        1.96190281450804
C            0.42958987473103        3.67540822568306        2.04451074847065
C            1.12526623331117        2.65861205964191        1.46586291695862
C            0.46163064911322        1.61426831606019        0.76843311023830
C            1.16798427623201        0.57315427462926        0.14785459853640
C            2.64546351711506        0.56602931680482        0.16845791597726
C            3.33983581904791       -0.41250410428049        0.87495448436577
C            4.72034683901110       -0.44417455658809        0.86950756380809
C            5.44283598490155        0.50390419137625        0.14734021075104
C            6.89710619960330        0.50312865111890        0.09093692517117
N            7.62279846460182        1.59335325891383        0.13178454473256
C            8.91742580588156        1.18176657331589        0.05742637478400
C           10.09116339846159        1.98511572015223        0.10211007036011
C           10.01522981232559        3.37517936659357        0.24588009316957
C           11.15979625146020        4.12958611978324        0.31759285305254
C           12.40048903885422        3.49794319396242        0.24999193863786
C           12.48716511316805        2.13312461507487        0.10227311588753
C           11.34034863993887        1.32796610184486        0.01615645826654
C           11.39888603049274       -0.11168855124782       -0.17352521450159
C           12.61978735048075       -0.78260088968450       -0.33768837445003
C           12.68455175366283       -2.13780791467609       -0.56113749095993
C           11.51538024315086       -2.88755965417288       -0.64682284712546
C           10.29947609347201       -2.27059523360174       -0.48354385596139
C           10.21222046099664       -0.89433840037808       -0.22744610762824
C            8.97815556287189       -0.20665485346514       -0.04890137132685
N            7.66844950481782       -0.63244330219610       -0.01334104002620
C            7.15401047176270       -1.94528757570002       -0.08745855360231
C            6.34313454978232       -2.30321638230338       -1.15787390053474
C            5.80291860366889       -3.57604398955953       -1.21232847173860
C            6.06903445309195       -4.49005318386314       -0.20629817892411
C            6.87829172774087       -4.13164137490795        0.86032527059773
C            7.41944688814023       -2.86047113578088        0.92699072316601
C            4.74974260926843        1.50645734077130       -0.53140875049956
C            3.37027827975692        1.53424646065941       -0.52339472764114
C            0.47818197634808       -0.46289170972152       -0.50040341306708
C            1.15915054489402       -1.51701063515697       -1.16581842129521
C            0.47849642292252       -2.52756953109733       -1.77238016646858
C           -0.93074854715072       -2.54808142921293       -1.75337303763533
C           -1.62191828615744       -1.54354553954248       -1.14942928570131
C           -0.95154522693209       -0.46146972590133       -0.51947024034920
C           -3.87883341867325        0.28417783073872        1.17734823570662
C           -5.26021798331729        0.27754382210942        1.13605600209428
C           -8.12610127117105       -0.50951537163356        0.20752308797660
C           -7.59405505345406       -1.75949833227257        0.73753507990666
C           -6.53790864000514       -2.41465409103465        0.10684208032576
C           -6.03152432697998       -3.58966727000937        0.63132002210433
C           -6.57316446480183       -4.12739728914063        1.78707245440448
C           -7.62969230742337       -3.48699066902623        2.41549896517119
C           -8.13707656198552       -2.31030503663671        1.89800972793632
C          -10.71379721771005       -2.23768800488559       -0.07694908683476
C          -11.91995606871971       -2.90741789774615        0.01106961890338
H          -14.04014470504947       -2.73196169517384        0.26320848484521
H          -13.98697387419382       -0.26738441616007        0.41235749353536
H          -11.82749517758705        0.93001124939778        0.25274268481074
H           -9.26946956672501        3.05821519316823       -2.40166254840101
H           -8.61565093845566        5.33662030791213       -3.11146400262560
H           -6.70181764802372        6.46015309336647       -2.02761780532196
H           -5.47631119786119        5.31983370740813       -0.21408245984704
H           -6.14058448300970        3.07200081592080        0.50349155620834
H           -5.70182080998826        1.14784376946699       -2.10468715818515
H           -3.23500729235484        1.15801424286285       -2.02100471636561
H           -2.73083706380695        2.74212535897812        1.26659706727012
H           -1.51249841283632        4.53482147941932        2.41475740119022
H            0.95038378465502        4.46251643019205        2.57019657537698
H            2.20256624095577        2.63094957594856        1.53307189617722
H            2.78868716489104       -1.15129556770877        1.43871420155765
H            5.23515419447726       -1.20010812677181        1.44285768592541
H            9.03485806036520        3.82348960280075        0.30352357290219
H           11.10449649370826        5.20248958778320        0.43022111821195
H           13.30475610238820        4.08623171625303        0.31316868474599
H           13.46881973021531        1.68897850575051        0.05684099464499
H           13.54418008096046       -0.22942346910516       -0.29912724384196
H           13.64442840782143       -2.61828205242001       -0.68249885709449
H           11.56165019666094       -3.94833242029806       -0.84482853770761
H            9.39515143970758       -2.85165978859327       -0.56711185813820
H            6.14117315479430       -1.58179679666226       -1.93622535426417
H            5.17326419879299       -3.85252245752812       -2.04442357373746
H            5.64595439011958       -5.48200292033810       -0.25217052442469
H            7.08612794626138       -4.84095682261748        1.64729836354137
H            8.04856638720813       -2.56858292509126        1.75578402261812
H            5.31352731725472        2.25315376285674       -1.06970979776085
H            2.84225777457921        2.30404309821539       -1.06745093460605
H            2.23840470350703       -1.50219857977499       -1.18389230585379
H            1.01253778204539       -3.32239176166635       -2.27253494742839
H           -1.45539648114544       -3.36459034131781       -2.22811588731599
H           -2.70133206971599       -1.55393769459083       -1.13939246093733
H           -3.36849762806412        0.03976074269517        2.09720710194429
H           -5.83274687474875        0.03402497101780        2.01880735979815
H           -6.12505212838994       -2.00763254048835       -0.80518176092748
H           -5.21300685819504       -4.08892007997385        0.13339644201043
H           -6.17581258799226       -5.04468640867746        2.19580087225696
H           -8.05756262537607       -3.90376506417825        3.31564843645673
H           -8.95784807315758       -1.80586993539215        2.38772207498314
H           -9.80103196892025       -2.79226904537926       -0.23792060894430
H          -11.93946240369719       -3.98514716639835       -0.06911746215726
