116
 energy: -179.827133134753 gnorm: 0.000060737267 xtb: 6.7.1 (edcfbbe)
C          -13.25166962271668       -2.23568821559277       -0.56312849749773
C          -13.18310432512543       -1.02864603170839        0.11449282125631
C          -11.97397548563472       -0.37302398035758        0.24394567745526
C          -10.81056100309428       -0.91813204471235       -0.29912609840602
C           -9.55370474945354       -0.20073787814953       -0.14218220160290
N           -9.54036909121014        1.15437763507086        0.00475576379316
C           -8.28471683567122        1.51902142906608        0.09433712736362
C           -7.85969440498083        2.89265875104229        0.31556747693779
C           -8.59865159918370        3.92315142353475       -0.26576782820582
C           -8.23962967214542        5.24158259792333       -0.06172680211141
C           -7.14386319098987        5.55040891920289        0.72900817880871
C           -6.41912138037472        4.53312652322963        1.32816078196501
C           -6.77303673644455        3.21142901827490        1.12853772810217
N           -7.44939842969995        0.43524669229435        0.00494872660053
C           -6.04285710688881        0.43764989765461        0.01918315230191
C           -5.33912424553994        1.24807130719285       -0.86911008411930
C           -3.96119171903395        1.25009098393521       -0.85723410870122
C           -3.24427118935860        0.43584117832658        0.02842726875882
C           -1.78527369440470        0.43623188724475        0.03732289765427
C           -1.07526381587095        1.65913133453308        0.24259476466280
C           -1.74600259492350        2.85494784441373        0.52492633839956
C           -1.05892377578017        4.03512958457607        0.78794893238097
C            0.31982951592492        4.02982971660236        0.82543596833425
C            1.01314131425974        2.84612450645102        0.59104083173868
C            0.35152205390155        1.65745468546276        0.26568737714410
C            1.06854987499208        0.43430275959558        0.06613077775093
C            2.51978663786739        0.43525757998565        0.06828162577778
C            3.24515806084375       -0.42116622300044        0.91045441311973
C            4.62061786375583       -0.43340016891385        0.90926921874200
C            5.33963578461735        0.39471188958826        0.04042246024826
C            6.78314796592952        0.42137794599089       -0.03331110668963
N            7.45732825675356        1.50574080336199       -0.34962382306963
C            8.76688306861243        1.15774736351764       -0.31422097875618
C            9.89650605882006        1.99200903686810       -0.54635719450938
C            9.74603249835279        3.35273949371013       -0.83601192499256
C           10.84832351843554        4.14751356576984       -1.03161134685774
C           12.12059912775462        3.58702031130077       -0.93521091133314
C           12.28034723598542        2.24954994497624       -0.65423121685524
C           11.17863471755758        1.40277175050063       -0.45600481641954
C           11.31354903773961       -0.01923473074279       -0.18649308602918
C           12.56802645202933       -0.64515200828842       -0.16025498604376
C           12.70675069673533       -1.99586925979222        0.05869638691516
C           11.58083219903463       -2.79117136710947        0.24850233412713
C           10.33361385175486       -2.21681954880808        0.23572362857093
C           10.17062343737637       -0.83716101217652        0.03870827291229
C            8.90178283432776       -0.19295181039188        0.01579472322896
N            7.61822987943886       -0.65103829785237        0.20657740541789
C            7.18892074994859       -1.95593907286107        0.53544809313867
C            6.46114647072605       -2.69254355802765       -0.39173638291903
C            6.01094740549887       -3.95801460646736       -0.05875528344381
C            6.28491191195949       -4.48913276982744        1.19092473403100
C            7.01120020369068       -3.75323929546245        2.11417612679019
C            7.46270829338270       -2.48579018808169        1.79323556233269
C            4.62268764176470        1.27229226087174       -0.78474813550784
C            3.24957742626908        1.29684395790484       -0.76731864474731
C            0.35482903252968       -0.78963103270121       -0.14179626844547
C            1.01988710403916       -1.98278021758834       -0.44344647795915
C            0.32848980753344       -3.16496340930078       -0.69064548274720
C           -1.05075693532406       -3.16490024572547       -0.69114711747789
C           -1.73988993252201       -1.98156851824505       -0.44886134458527
C           -1.07225110021415       -0.78759727726694       -0.15176956921513
C           -3.96839605315951       -0.37783893511177        0.90809833486879
C           -5.34674813874400       -0.37561971994907        0.90991824482810
C           -8.25219560074935       -0.67562332531606       -0.13695869987081
C           -7.72000701213613       -2.02906996335416       -0.24330754724934
C           -6.71086149592220       -2.33505825783068       -1.15470730603165
C           -6.21501782477506       -3.62320836891585       -1.24016598257109
C           -6.71488945714102       -4.61960775896025       -0.41829501975979
C           -7.72085393058769       -4.32415430073647        0.48835490287033
C           -8.22132464532032       -3.03916532338449        0.57737670763945
C          -10.89206482158054       -2.12212755883722       -0.99711203787523
C          -12.10421159360082       -2.77499601590561       -1.12210737425644
H          -14.19630542974462       -2.75073956436967       -0.66147602667839
H          -14.07657197071376       -0.59844030305251        0.54419039222550
H          -11.90616035106028        0.56956064115334        0.76609555658769
H           -9.45228614317568        3.66702238574698       -0.87479088127697
H           -8.81559461013421        6.03170493255202       -0.52095055257416
H           -6.86154066472213        6.58107564647226        0.88575927681513
H           -5.57698646444845        4.76976081870272        1.96218820918844
H           -6.21672246402705        2.42800873430082        1.62216628277285
H           -5.88203939438346        1.86798754149194       -1.56791244100909
H           -3.42266128730251        1.86093372244850       -1.56639945660369
H           -2.82396812210478        2.86283447186839        0.55624057237645
H           -1.61166676774578        4.94237417075096        0.98215897965585
H            0.86805294433944        4.93208982270209        1.05268158778869
H            2.08808375165375        2.84761781629206        0.68311776628067
H            2.70853736092426       -1.04750030482634        1.60830462228231
H            5.14001339372211       -1.06879977529026        1.60964342145242
H            8.74355500151491        3.74895916167837       -0.89315838093781
H           10.73480510272755        5.19826426196680       -1.25448229077938
H           12.99195636633889        4.20898307135965       -1.08213185119584
H           13.28434338908796        1.86207429890841       -0.58590025377829
H           13.46046983305886       -0.06306990809690       -0.32329756293076
H           13.69084379890398       -2.44095993543676        0.07198468212957
H           11.68511316014719       -3.85525478458946        0.40117750472883
H            9.46327593280723       -2.83900392305092        0.36723908839168
H            6.25204651808656       -2.26714514080484       -1.36240125822119
H            5.44616655987664       -4.52938143002922       -0.77977917690918
H            5.93200419678243       -5.47649330997522        1.44708788402455
H            7.22468677659752       -4.16374518842564        3.08962031542774
H            8.02747498301208       -1.90125516283866        2.50533009198819
H            5.17794383664566        1.91929271508917       -1.44649256216117
H            2.71572007205884        1.95178284385701       -1.44039385705615
H            2.09701500008411       -1.98912015134531       -0.50503012706692
H            0.87866970120058       -4.07054143388983       -0.89931778712194
H           -1.60182768548597       -4.07046447164819       -0.89791108323851
H           -2.81667818312555       -1.98442159314431       -0.50900266399244
H           -3.43560387935630       -0.99042209967891        1.62009281197655
H           -5.89274946997232       -0.99439070490316        1.60682589810640
H           -6.32564955975181       -1.56437273079606       -1.80744682601483
H           -5.43653404268470       -3.84933343267066       -1.95442668209190
H           -6.32446616506765       -5.62430225832260       -0.48571118271535
H           -8.11577064094063       -5.09768603082481        1.13075506904468
H           -9.00509295890425       -2.80453101790276        1.28338020747275
H          -10.00606757882368       -2.54099633565881       -1.45104887828653
H          -12.15428662413212       -3.70875234960090       -1.66416974116162
