  116
       -179.82089779
 C        -13.0272118569       -2.6411168325       -0.2484265391
 C        -13.0353930435       -1.3983545511        0.3640993370
 C        -11.8742749011       -0.6544230870        0.4401287406
 C        -10.6834941876       -1.1460471876       -0.0930532916
 C         -9.4802979138       -0.3339667541        0.0028688379
 N         -9.5616865248        1.0204010654        0.1117800405
 C         -8.3353402613        1.4812196743        0.1447757390
 C         -8.0030647451        2.8878930810        0.2960922167
 C         -8.8852375852        3.8360773670       -0.2225024834
 C         -8.6147111025        5.1843622033       -0.0973037754
 C         -7.4635218049        5.6067493965        0.5485342240
 C         -6.5950564786        4.6717372329        1.0865112489
 C         -6.8613611183        3.3203154038        0.9692464904
 N         -7.4272660136        0.4590736637        0.0542867742
 C         -6.0251529937        0.5396821735        0.0237084119
 C         -5.3902721819        1.3101777843       -0.9443320496
 C         -4.0108751964        1.3509923870       -0.9914701985
 C         -3.2483382566        0.6205027415       -0.0844067716
 C         -1.7736131663        0.6361261471       -0.1420871969
 C         -1.0713210395        1.8091669600        0.1680483567
 C         -1.7399532350        3.0058548404        0.5386729354
 C         -1.0460018764        4.1329467039        0.8541920072
 C          0.3630018877        4.1288509148        0.8377907979
 C          1.0425112428        2.9973819328        0.5066624728
 C          0.3582783334        1.8047822930        0.1523406489
 C          1.0475325838        0.6278036435       -0.1725851663
 C          2.5234822891        0.6019050314       -0.1454371802
 C          3.1852880740       -0.1405505629        0.8285430817
 C          4.5636214053       -0.1966864211        0.8604884965
 C          5.3158832666        0.4842165912       -0.0950690851
 C          6.7693536449        0.4441087462       -0.1165634088
 N          7.5186745378        1.4794711215       -0.3986203088
 C          8.8039076517        1.0499605373       -0.2946489740
 C          9.9939947144        1.8109347234       -0.4638423580
 C          9.9442976787        3.1743738036       -0.7723803573
 C         11.1029175558        3.8983179980       -0.9017957446
 C         12.3300678242        3.2634860669       -0.7200266811
 C         12.3905577000        1.9224877167       -0.4209031951
 C         11.2290140265        1.1463119532       -0.2874465393
 C         11.2603153114       -0.2782533576       -0.0046978811
 C         12.4698896974       -0.9779833053        0.1105354451
 C         12.5107342082       -2.3340566825        0.3324304931
 C         11.3286493239       -3.0611370689        0.4298042658
 C         10.1223327631       -2.4127752233        0.3326178990
 C         10.0587342684       -1.0251348201        0.1405574433
 C          8.8364957417       -0.3016388733        0.0457472204
 N          7.5179864298       -0.6776341572        0.1677545152
 C          6.9769489022       -1.9330099171        0.5047183363
 C          6.1521109640       -2.5894581433       -0.4013105313
 C          5.5781623234       -3.7989899546       -0.0538621469
 C          5.8252223546       -4.3562845427        1.1895699978
 C          6.6492228844       -3.7019015431        2.0914211334
 C          7.2229128137       -2.4893659789        1.7566479223
 C          4.6554180159        1.2549568329       -1.0516231606
 C          3.2770885070        1.3110337441       -1.0771524189
 C          0.3436078212       -0.5397499492       -0.5023507919
 C          1.0130627772       -1.7336103940       -0.8803501510
 C          0.3200256251       -2.8571832159       -1.2102923516
 C         -1.0889199595       -2.8533150992       -1.1954546302
 C         -1.7693612969       -1.7262882258       -0.8514101016
 C         -1.0853538672       -0.5361149273       -0.4871519946
 C         -3.8952508275       -0.1411071867        0.8848686512
 C         -5.2732354932       -0.1826232720        0.9436941978
 C         -8.1473783376       -0.7121094282       -0.0277556937
 C         -7.5002139224       -2.0149711553       -0.1110322894
 C         -6.4695812570       -2.2455793799       -1.0211437535
 C         -5.8385991697       -3.4746727737       -1.0651338389
 C         -6.2278608588       -4.4897592984       -0.2076133946
 C         -7.2601455004       -4.2727154777        0.6912425579
 C         -7.8916563440       -3.0450965813        0.7432423075
 C        -10.6871350881       -2.3883814435       -0.7245962211
 C        -11.8518332093       -3.1289371646       -0.7958491857
 H        -13.9342838444       -3.2248293480       -0.3055587551
 H        -13.9519576873       -1.0098635637        0.7840661518
 H        -11.8650057071        0.3167359494        0.9099724687
 H         -9.7773797281        3.4898222756       -0.7203338783
 H         -9.3022312950        5.9104972678       -0.5052564450
 H         -7.2481056034        6.6609790671        0.6404253955
 H         -5.7066478642        4.9961368966        1.6089483748
 H         -6.1900045781        2.6049874890        1.4201107847
 H         -5.9827978986        1.8686320059       -1.6538461277
 H         -3.5146864029        1.9387051572       -1.7495974638
 H         -2.8191232046        3.0060185032        0.5713504096
 H         -1.5694329844        5.0364464724        1.1303329000
 H          0.8980363139        5.0290154557        1.1015884237
 H          2.1218439129        2.9893196368        0.5146579442
 H          2.6074999447       -0.6711166959        1.5717091182
 H          5.0517599143       -0.7569820381        1.6430099457
 H          8.9732100266        3.6279770171       -0.8959965646
 H         11.0694657178        4.9516466932       -1.1376089952
 H         13.2449902372        3.8302915445       -0.8149374423
 H         13.3628677760        1.4754400146       -0.2877630352
 H         13.4051551002       -0.4503469400        0.0170916072
 H         13.4622645533       -2.8377480686        0.4172470471
 H         11.3582639849       -4.1306257374        0.5769641258
 H          9.2092830724       -2.9835754527        0.3890453547
 H          5.9651054883       -2.1451366917       -1.3677731929
 H          4.9375627973       -4.3077258897       -0.7583516689
 H          5.3761013423       -5.3005271573        1.4571774082
 H          6.8420478021       -4.1334739656        3.0620213957
 H          7.8619789845       -1.9671411117        2.4538920898
 H          5.2442760424        1.8001566590       -1.7726786223
 H          2.7717137812        1.8969198426       -1.8313703868
 H          2.0923930884       -1.7316313511       -0.9101231137
 H          0.8434727982       -3.7573991745       -1.4970248561
 H         -1.6233019578       -3.7511185039       -1.4695263720
 H         -2.8490132424       -1.7213555214       -0.8586349686
 H         -3.3081385074       -0.7001515111        1.5982996975
 H         -5.7731813435       -0.7721771312        1.6974026737
 H         -6.1713997269       -1.4641575761       -1.7052063512
 H         -5.0412561411       -3.6405902306       -1.7752596143
 H         -5.7317548108       -5.4482132085       -0.2418483168
 H         -7.5701800626       -5.0628661760        1.3591072639
 H         -8.6928508450       -2.8707909574        1.4463574794
 H         -9.7802602048       -2.7680035772       -1.1705795129
 H        -11.8437153956       -4.0913832164       -1.2872239546
