64
 energy: -96.647123170881 gnorm: 0.000028148352 xtb: 6.7.1 (edcfbbe)
C           -0.76115140927826        1.70869364386382        2.29844114455989
C           -1.35822482206999        0.72850713429494        1.27792924846393
C           -1.75606128232999       -0.53348090718710        2.04914463133668
C           -3.59762944393873        0.77855722372692       -0.17185789110409
C           -4.86198639286393        1.50587230603080        0.15795304781392
C           -6.03639490855065        0.64244527531910       -0.10982832782758
C           -5.92216136150625       -0.64689499985131       -0.41756890148396
C           -4.63625738682398       -1.42365786569995       -0.59915368541582
C           -2.37762388586953       -0.59440332659110       -1.59012836950576
N           -1.63269804951340       -1.74888135234174       -1.89204032142512
C           -0.65242577399515       -2.05462647838971       -0.95045496751031
C           -0.26651781497989       -3.40269976122991       -0.93350015624477
C            0.58479663385491       -3.92163886036996        0.01318399328380
C            1.08875532649919       -3.07637436546495        0.97950014189535
C            0.80580727654566       -1.71568920415883        0.91767332915803
C            1.50122987886641       -0.88668468436310        1.93248630538323
O            1.64486265474803       -1.22800574825105        3.08429386604657
C            4.09830154994508        1.12746441121569        0.08796728723889
C            5.28954934825861        0.89271135671338       -0.70624966871311
C            5.42826745644944       -0.08546555698237       -1.62377470950033
C            4.44516475087215       -1.10097985281714       -1.88439786855571
C            3.67590684840250       -1.63315369326323       -0.92857395378105
C            3.91462555934352       -1.27176132212352        0.50163906879779
C           -0.06077658898870       -1.15183031827800       -0.03438059668212
C            3.73277272427696        2.53344124873078        0.17665579312308
C            3.36642271623658        0.11947331117928        0.61708233084669
C            2.07613475295140        0.39091370381985        1.37268846704309
C            1.08003898922061        0.98850208519257        0.42663367995891
C            1.34271125022757        2.15408253415363       -0.18335581722592
C            2.49117959509304        3.00145257547759        0.00616504095906
S            0.11266720417944        2.62878107806121       -1.35729463420917
C           -0.69429797972263        1.08029252112106       -1.13068913428729
C           -1.66681144610355        0.65662544778775       -1.91652757321919
C           -3.49062175135554       -0.48906674936113       -0.85006836621110
C           -3.96905950436823        1.03261222973588        1.26994826090749
C           -2.61895523430398        1.44895743338711        0.73925078621578
C           -0.26705027894916        0.36173300735543        0.12025434841296
H           -1.54329342395237        2.00342160421400        2.99620513882384
H            0.03857356468282        1.24830082123714        2.87091964847857
H           -0.38313060179875        2.60899553433608        1.82034354703673
H           -2.26641405916331       -1.25143111239018        1.41216124362984
H           -0.88755107386162       -1.01723650582574        2.48307807145920
H           -2.40682410824569       -0.26443014988277        2.87705446580051
H           -4.96560895822764        2.56869798485854       -0.03536045461660
H           -7.01535915849056        1.09488388120106       -0.03816871236102
H           -6.81836353913241       -1.23411255135337       -0.56961927918794
H           -4.75268497715719       -2.12214510673880       -1.43281780805172
H           -2.14806106412014       -2.55986352805448       -2.21025796727347
H           -0.70110281768733       -4.05790839264018       -1.67639422631266
H            0.82851710641507       -4.97285031144621        0.01319677654121
H            1.71506774303674       -3.44673361630490        1.77663574395318
H            6.03807005641705        1.67454150801527       -0.66882290530957
H            6.28597011011089       -0.05761124484693       -2.28382291605006
H            4.34183943613823       -1.42526751528873       -2.91105887056638
H            2.87683036778931       -2.32186408481118       -1.16048919979853
H            3.44986196980504       -1.96935325776263        1.19063165142951
H            4.55438195238879        3.23364418854471        0.24918802883212
H            4.99205274696510       -1.24312227264723        0.69497295042061
H            2.31095875765861        1.08810725803834        2.19052587642553
H            2.31136740259413        4.06554681002537       -0.06323332615360
H           -2.00185221076665        1.21514074988626       -2.77676294715706
H           -4.46331938722705       -2.03047957568240        0.30078806562467
H           -4.24237801359855        0.36492242374409        2.05759334361290
H           -2.45127233155578        2.51346542688066        0.58233562200632
