64
 energy: -96.573938021423 gnorm: 0.000028493932 xtb: 6.7.1 (edcfbbe)
C           -0.72055990502747        1.59738939060550        2.23986721545523
C           -1.41478389794724        0.67598515491853        1.22648066893517
C           -1.77100461039567       -0.62341885506716        1.95337664377304
C           -3.77459328713670        0.80383679268357       -0.00319743662578
C           -4.98800722021651        1.54591808612766        0.45775217541402
C           -6.19856277839336        0.70892592209112        0.28262634965775
C           -6.13844709223477       -0.57373742815044       -0.06567049797598
C           -4.89149278891117       -1.36857423992234       -0.38703488423411
C           -2.70913627105756       -0.55533739797427       -1.55164841176035
N           -2.01187588568221       -1.70236244201353       -1.96235815761806
C           -0.89263193093412       -2.01003352441181       -1.19247833315229
C           -0.43678040227928       -3.32888733834662       -1.33456551165578
C            0.56258325258393       -3.86231319565237       -0.55567843284884
C            1.12764001095145       -3.07312588928620        0.42594026243916
C            0.75304248838391       -1.74001795300831        0.51965133653462
C            1.42848662496915       -0.93920580085943        1.56325735198176
O            1.54466411556898       -1.30084896022332        2.71235822650030
C            4.15549682847579        1.21822811531025       -0.00943066615545
C            5.55592096478977        1.01200622064511       -0.35562655943719
C            6.09037769993835       -0.08173130644989       -0.92995876362904
C            5.39005948959127       -1.31988903708430       -1.16482397440677
C            4.45817592850885       -1.78472818111088       -0.33138672257306
C            4.15988639137748       -1.05445829832175        0.94428429438965
C           -0.22919345037589       -1.14631726811049       -0.28858514036542
C            3.68532138496693        2.49765330041255       -0.32435364511081
C            3.40298133218636        0.17892043054735        0.55050131351357
C            1.97897694339784        0.36493079689033        1.03493441543182
C            0.96156806330417        0.94262307917798        0.11982756459309
C            1.22163712343662        2.13598556176511       -0.58320567015795
C            2.36570785331204        2.89401893848880       -0.63593506708782
S           -0.18578302882572        2.64741833814359       -1.50972788351287
C           -0.97467890699901        1.10810468003425       -1.21898425029103
C           -2.01666797978089        0.69539878895156       -1.91777818918163
C           -3.75296277059827       -0.44972227262649       -0.71645169663764
C           -4.00471640972300        1.03245605362534        1.47178955281697
C           -2.70214783292835        1.43672476893440        0.82500447387295
C           -0.42399384753758        0.36319835709582       -0.03462305307520
H           -1.45629607300349        1.93469661447865        2.96805655898239
H            0.05999976871648        1.07198356373096        2.78176275473491
H           -0.29623110247893        2.47628122489856        1.75914355100762
H           -2.35831770089077       -1.28703223002165        1.32446183252951
H           -0.88160555003761       -1.15477218053266        2.27226194887913
H           -2.33412269197424       -0.39352473094065        2.85424212356749
H           -5.08878793608170        2.61439378483657        0.29671456718017
H           -7.15761317494688        1.17544504981923        0.45795448337722
H           -7.05622362023326       -1.14154476070130       -0.14562417519464
H           -5.09909910500419       -2.03889979586505       -1.22604369874056
H           -2.55747668976470       -2.51275361998456       -2.22519178630181
H           -0.92956860842035       -3.95079080445213       -2.06940708713949
H            0.86875034290674       -4.88865981449239       -0.68729419177802
H            1.86251977782792       -3.46581562827054        1.11101410289101
H            6.17092964134010        1.90230437332176       -0.30217627243383
H            7.10402284120132       -0.02391811873922       -1.30644900538655
H            5.66875548825448       -1.87972360961455       -2.04755888828547
H            3.89984374459730       -2.68324796355102       -0.54800169192306
H            3.61354229823896       -1.68389942511130        1.63943134902909
H            4.43993372585855        3.23122612453509       -0.57437968650211
H            5.10856444906993       -0.75943224570074        1.40937439774868
H            2.10187967904375        1.06408140847315        1.88186321562725
H            2.26985282630133        3.85783110461880       -1.11822111501356
H           -2.41540370011794        1.26152046351050       -2.74547169243328
H           -4.65148921563031       -2.00601010954805        0.47559842461768
H           -4.21559017354220        0.35489552122469        2.27013315560080
H           -2.52653092798410        2.50148755622070        0.67756717274290
