64
 energy: -96.639562754510 gnorm: 0.000104260859 xtb: 6.7.1 (edcfbbe)
C           -0.06234237268810       -1.97439064094954        0.73816990512104
C           -1.03030403722066       -0.87597201597238        0.24416440516404
C           -1.37029085076714       -1.20581050392571       -1.21323854893115
C           -3.59809992880196       -0.53664476116390        0.96462771407132
C           -4.46008299122618       -1.55427124139432        1.63060297386201
C           -5.78453560329650       -1.61833568494672        0.96701426512046
C           -6.04088150663859       -0.99845995286447       -0.18181715079240
C           -5.09998844723499       -0.11374958485867       -0.96852131476735
C           -3.08639207701802        1.36855529723016       -0.19684054817558
N           -2.65442602884838        2.02852786821387       -1.33984227337307
C           -1.31641319231476        2.04871926204292       -1.68876748060761
C           -1.05594580090906        2.78352725784034       -2.85704323859252
C            0.21602354890394        3.02471643365704       -3.31342293812897
C            1.27636408108841        2.54753230716428       -2.57128806126931
C            1.04781417809727        1.77084975210526       -1.44043686330172
C            2.29672034829172        1.32999513807099       -0.76454957016267
O            3.31482155679656        1.97762711756796       -0.73709230209011
C            4.07245130727945       -0.15711124897408        1.52823585786114
C            5.40583462867032       -0.67242004108397        1.76470877580311
C            6.28923008494207       -1.04491318661003        0.81187892630967
C            6.00057182834534       -1.08230895503448       -0.58895333207389
C            4.79518262434045       -1.41032303177388       -1.07200686207299
C            3.73595266069248       -1.91633112588528       -0.14965431490683
C           -0.24736134830661        1.43036546426514       -0.99150530636871
C            3.69949753097474        0.90222831508359        2.44697570642293
C            3.29586446383428       -0.65163773710690        0.52549763771192
C            2.08724944326814        0.00243542217955       -0.06265035968324
C            1.03042350370666        0.50365356137840        0.87640907743577
C            1.25927885962727        1.16662061370161        2.02197733828913
C            2.49418446374138        1.43428634569888        2.69967189347449
S           -0.20909079779122        1.89441378022432        2.70189676200000
C           -1.13366423391880        1.44620284572808        1.28067350901037
C           -2.39208060334086        1.78076999293968        1.04364314066461
C           -3.96011308607135        0.34817319533165       -0.10868289562839
C           -3.30727942987997       -2.02523721222401        0.78703478723846
C           -2.22552663061248       -1.07298698374648        1.21515021658028
C           -0.36467554808002        0.58830006827403        0.31360388604073
H            0.43555001927797       -1.69030104061209        1.66172338282806
H           -0.64005763543533       -2.87665389983583        0.93169225187408
H            0.68998777899602       -2.23056180564080        0.00129779458409
H           -2.22806890174303       -0.64826184451158       -1.57179559161378
H           -0.52288544382130       -0.96259031108459       -1.85256145277977
H           -1.57294606384338       -2.26853394694651       -1.32354394017630
H           -4.43138491480528       -1.70145899942805        2.70547526850236
H           -6.55590443452069       -2.20306708255670        1.44787758175064
H           -7.01987456797063       -1.10816375169258       -0.63039542323789
H           -5.65873003841125        0.74655487802098       -1.35051650053635
H           -3.30970382822181        2.16217969651318       -2.09654350983909
H           -1.90378756306363        3.19375440817295       -3.38860077842885
H            0.37862113993644        3.60058946818403       -4.21116890254315
H            2.29782067689924        2.76017161432864       -2.84456384198069
H            5.77395395669886       -0.57453557694035        2.77873791271073
H            7.31769973425753       -1.21523203666291        1.10428641319111
H            6.80241447170634       -0.81512451842482       -1.26321818570116
H            4.56307702206482       -1.31530623516321       -2.12247047730105
H            2.92834236866426       -2.40733223134878       -0.69019969438396
H            4.51625655665182        1.26022980167794        3.06041741383608
H            4.16465276989558       -2.60908157126674        0.57891104871587
H            1.62918669795750       -0.66725038912698       -0.79214888856477
H            2.41452641679550        2.17117005354348        3.48767862531115
H           -2.97233747182914        2.35733926879021        1.74818899714699
H           -4.74654466544733       -0.67310007158115       -1.84777627879173
H           -3.37402440697262       -2.63601282363034       -0.08796219989662
H           -1.89381427129756       -1.11602118294739        2.25155855800458
