  38
        -61.59205350
 C          3.2960890149        2.6714040641       -0.0128479277
 C          1.9571669042        2.9482013228       -0.0118117263
 C          1.0125642470        1.8694380217       -0.0032522052
 C         -0.3848349653        2.0113835503       -0.0012366921
 C         -1.0835861358        3.2717838770        0.0026130624
 C         -2.4476614365        3.3444494056        0.0104581385
 C         -3.2754731130        2.2004879583        0.0135519036
 C         -2.6483967005        0.9539590292        0.0071324840
 C         -1.2438348660        0.8638362514       -0.0007468825
 N         -0.8721354289       -0.4434383209       -0.0094191566
 C         -1.9726770064       -1.2343501187       -0.0061039814
 C         -2.0722496038       -2.6220954305       -0.0140954035
 C         -3.3368842248       -3.1736540426       -0.0113843206
 C         -4.4789585527       -2.3638001736       -0.0004148110
 C         -4.3909818592       -0.9828350858        0.0073953499
 C         -3.1327954349       -0.3980147766        0.0039210121
 N          1.4859241094        0.5871640080        0.0013556541
 C          2.7645879245        0.3432825977       -0.0006850420
 N          3.0734284132       -1.0214214892        0.0038688840
 C          4.2859891427       -1.6279044824        0.0158014556
 C          4.0580643106       -2.9799816804        0.0148732630
 C          2.6575836798       -3.1007557235        0.0023468896
 N          2.0816484680       -1.9201575734       -0.0038828667
 C          3.7537309151        1.3416700488       -0.0059056517
 H          4.0196387927        3.4737202856       -0.0194779398
 H          1.6100899312        3.9676545030       -0.0201884863
 H         -0.5076061610        4.1822699434        0.0006544760
 H         -2.9196837099        4.3168068509        0.0145091021
 H         -4.3483302988        2.2936686017        0.0193304884
 H          0.1210226263       -0.7012037294       -0.0113755895
 H         -1.1830359717       -3.2330587781       -0.0227363499
 H         -3.4542471048       -4.2465794796       -0.0178876830
 H         -5.4511661973       -2.8340948932        0.0018983524
 H         -5.2820173852       -0.3735684793        0.0159094497
 H          5.2045187840       -1.0791515654        0.0241118298
 H          4.7835049362       -3.7670221754        0.0213173766
 H          2.0660400658       -3.9947292147       -0.0038705549
 H          4.8051772958        1.1170878221       -0.0044477793
