  62
       -100.76069338
 O          2.3475734873       -1.3148547980        2.3853889091
 P          2.2847266649       -1.1681566650        0.9257998515
 C          3.8305603678       -0.5851568687        0.1718680207
 C          3.8795662518        0.0736724479       -1.0491492922
 C          5.0988241557        0.4876033481       -1.5540971838
 C          6.2656769894        0.2415298835       -0.8472700063
 C          6.2165849506       -0.4130111778        0.3729266997
 C          4.9985605554       -0.8247239549        0.8828017767
 C          1.7431077140       -2.6720108961        0.0627322940
 C          1.6001909776       -2.7277253912       -1.3175313868
 C          1.1159538111       -3.8799660679       -1.9082607870
 C          0.7776592509       -4.9738900562       -1.1257522065
 C          0.9258730052       -4.9198823092        0.2504682927
 C          1.4080322187       -3.7673133840        0.8454756514
 C          1.0121821458        0.0571489150        0.4574329238
 N          1.3520243020        1.3243342021        0.3636818904
 C          0.3341753698        2.1614192213        0.1313347478
 C          0.6487816394        3.5759338171       -0.0510368353
 C          1.9282544703        4.0401337654        0.2520411053
 C          2.2336794226        5.3768994321        0.0856215779
 C          1.2724065677        6.2568275317       -0.3876927427
 C          0.0018002476        5.7974393217       -0.6988692084
 C         -0.3129087836        4.4629285028       -0.5320406394
 N         -0.9315647998        1.7780147338        0.0462749167
 C         -1.1716556934        0.4735491464        0.1854457722
 N         -2.4560492738        0.0374142847        0.1180994164
 C         -2.8664981573       -1.2988173739        0.0136565363
 C         -2.1214678777       -2.4653895224       -0.0187651425
 C         -2.8008910286       -3.6648750830       -0.1535353373
 C         -4.1860860974       -3.7121160280       -0.2543532933
 C         -4.9343400787       -2.5502025250       -0.2237262008
 C         -4.2719477541       -1.3394449137       -0.0898748287
 C         -4.7399934308        0.0215198380       -0.0238535845
 C         -6.0097724386        0.5781290677       -0.0496091646
 C         -6.1316832738        1.9501915641        0.0647554109
 C         -5.0061628572        2.7517469569        0.2144388387
 C         -3.7301081683        2.2137344975        0.2408962562
 C         -3.6016375260        0.8420116665        0.1074039171
 N         -0.2052382099       -0.4341617230        0.3679707228
 H          2.9680566824        0.2811136945       -1.5907660609
 H          5.1406309524        1.0071435787       -2.5005786647
 H          7.2150748459        0.5671383916       -1.2470906922
 H          7.1263514707       -0.5982322674        0.9255714641
 H          4.9294610047       -1.3247801041        1.8383058469
 H          1.8638164470       -1.8719375500       -1.9221825274
 H          0.9978615545       -3.9271555526       -2.9811234776
 H          0.3970001376       -5.8701678241       -1.5937540828
 H          0.6623622914       -5.7730639305        0.8586819721
 H          1.5264355411       -3.6924359009        1.9168050335
 H          2.6614079925        3.3387482865        0.6191574619
 H          3.2233355011        5.7367083018        0.3251687795
 H          1.5140435642        7.3017395578       -0.5166973280
 H         -0.7434350648        6.4836081984       -1.0735489341
 H         -1.2936519965        4.0897955531       -0.7824231841
 H         -1.0495611431       -2.4479581790        0.0665679039
 H         -2.2322397909       -4.5824760628       -0.1782805174
 H         -4.6809651105       -4.6664727715       -0.3564844865
 H         -6.0104673118       -2.5785482882       -0.3022094462
 H         -6.8805885017       -0.0513565411       -0.1509510996
 H         -7.1105299028        2.4057239538        0.0469851731
 H         -5.1266996337        3.8199808512        0.3168671735
 H         -2.8649936876        2.8400069431        0.3713583005
