62
 energy: -100.681388493657 gnorm: 0.000088562765 xtb: 6.7.1 (edcfbbe)
O            2.10553175540634       -1.58372576699696        2.44461037235761
P            2.13100928698448       -1.41349135258966        0.98755932605593
C            3.74554267007750       -0.89379396513746        0.33144662738835
C            4.29840392674972        0.23543021406906        0.92060654596068
C            5.53430162367935        0.69218490721021        0.50355691532372
C            6.21759613695150        0.01462086437365       -0.49493732179428
C            5.66950827708217       -1.11969366583267       -1.07005500018790
C            4.42823448174669       -1.57849847636765       -0.66126206126327
C            1.49317989990135       -2.82179260449698        0.04387072465120
C            1.28947152707629       -2.74106540961355       -1.32896736850594
C            0.73342570555042       -3.81490276850002       -1.99877313521355
C            0.37912790378274       -4.96047206082348       -1.30120716567476
C            0.57929438461221       -5.03681446218819        0.06759856161944
C            1.13492053491862       -3.96453212872637        0.74376017753807
C            0.99971440029387       -0.05256389383675        0.47760211796651
N            1.47443610098275        1.11704911539634        0.28407287035391
C            0.56915460575729        2.11851161397518        0.01667915896614
C            1.01408532251533        3.43688052306523       -0.21911764268344
C            2.38476584061533        3.75285454934519       -0.12900188908454
C            2.82230410776146        5.03665744201222       -0.35015247434333
C            1.92014679474005        6.04574906263805       -0.66936716551939
C            0.56739111959686        5.74634390984422       -0.77192723101048
C            0.11202006436697        4.46736721712075       -0.55411902473784
N           -0.74531625280331        1.74897287454303       -0.03505527194966
C           -1.14327783445403        0.53183113480393        0.16264570504279
N           -2.46184030789511        0.20554798739523        0.09749946149594
C           -3.00361534564930       -1.07798146926824       -0.00430196472124
C           -2.37494951790052       -2.30909926334788       -0.08263135342913
C           -3.17059539700762       -3.43509972726014       -0.20655485687778
C           -4.55733033615188       -3.34513352293582       -0.25763907489330
C           -5.18946778613284       -2.11796976310789       -0.18472171648108
C           -4.41045817538915       -0.97737016805901       -0.05854376601956
C           -4.73664015252961        0.42258865571896        0.03436124256876
C           -5.93534845620746        1.12024669867573        0.04723451623003
C           -5.89847750976419        2.49714582832055        0.16717712227034
C           -4.68830694504914        3.17357244695360        0.28063830273547
C           -3.48186841027517        2.49485241567994        0.27013751835117
C           -3.51467636520017        1.11925876489554        0.13229564532148
N           -0.26222877289836       -0.47091978673432        0.43951116957476
H            3.74723500960391        0.73934899722639        1.70236828543243
H            5.96692052104452        1.57291577444691        0.95462717805858
H            7.18278904590968        0.37067819108475       -0.82364601254874
H            6.20881096669800       -1.64998137761794       -1.84128353346497
H            3.99882057689109       -2.46525082143672       -1.10599378447257
H            1.55664880610893       -1.83660521198084       -1.85866980541432
H            0.56870644827157       -3.75887055412532       -3.06471754546137
H           -0.05959339538017       -5.79416337318180       -1.82957067944394
H            0.29777041669998       -5.92849966913497        0.60798756855983
H            1.29222901004871       -3.98944605450158        1.81224065710377
H            3.07749988612128        2.96147841631241        0.11474861536990
H            3.87613594991410        5.26514593848027       -0.27609441035959
H            2.26889535934837        7.05298465386674       -0.84030664232407
H           -0.13594149643823        6.52650711004098       -1.02756904785671
H           -0.93704323598741        4.23206122252036       -0.64852724136710
H           -1.30281900021960       -2.39146669018321       -0.03877634744366
H           -2.69682116728967       -4.40362981655449       -0.26587984870033
H           -5.14502811871501       -4.24556083730545       -0.35651102348237
H           -6.26536834068483       -2.04312754249765       -0.22609325553248
H           -6.87470697672935        0.59474362498775       -0.03171918273286
H           -6.82083452435354        3.05817562706154        0.18218214118817
H           -4.68854636965563        4.24789890054417        0.38624413513939
H           -2.54290410516210        3.01464315548259        0.37666169820199
