62
 energy: -100.759875011523 gnorm: 0.000059140668 xtb: 6.7.1 (edcfbbe)
O            1.41679056976841       -3.00287021732653        0.96541010216280
P            1.97262522736269       -1.77179441250453        0.40080707336453
C            3.26995741480309       -0.99875909161777        1.41469634130232
C            3.94625625096305        0.14906049650268        1.02435808823235
C            4.91277459969742        0.68488149012029        1.85524172479863
C            5.20733815629390        0.07707693579252        3.06629500581218
C            4.53433489586725       -1.07051003607483        3.45174876732461
C            3.56344959200146       -1.60864970491950        2.62563073762676
C            2.67553883439314       -1.96360304105273       -1.26847707902572
C            3.04714941415378       -3.25209996430048       -1.62720915887425
C            3.60460922382735       -3.49029656539249       -2.87031609687284
C            3.78768614039069       -2.44012659639859       -3.75531732687043
C            3.40706155002171       -1.15559149718573       -3.40037571650027
C            2.85034429935516       -0.91164038377254       -2.15748154267334
C            0.72616763753751       -0.44982878864807        0.19871925332067
N            1.08226540542040        0.78276499451835       -0.11524601490000
C            0.06342541682666        1.63763764355172       -0.25467906446982
C            0.38685832415890        3.01556609281938       -0.62238465874391
C            1.68090816976871        3.49591982666926       -0.42981030487319
C            1.99361438143945        4.79666964211896       -0.77376922801979
C            1.02321046945498        5.62465773122390       -1.31631511262954
C           -0.26389479490633        5.14950147613897       -1.51433408280294
C           -0.58502441532438        3.85111768507043       -1.16838879257654
N           -1.20929745406134        1.31456454208710       -0.08651049143371
C           -1.46285171314172        0.04621381724525        0.24537307085994
N           -2.74706333361711       -0.34000166653196        0.43539619600642
C           -3.18321941041684       -1.65626624084876        0.66293783204179
C           -2.46101506345239       -2.82836511497403        0.81511565220361
C           -3.17159317527480       -3.99994433046718        1.02300039756744
C           -4.55987083038296       -4.01567764801648        1.07977440343757
C           -5.28340022015115       -2.84720638569917        0.93218891078312
C           -4.59126319521738       -1.66390169792470        0.72472245581038
C           -5.03232189806891       -0.30338983890886        0.54808528860284
C           -6.29063720241203        0.27822500544242        0.53397062345380
C           -6.38394052650122        1.64688453027786        0.36255116183430
C           -5.23990265120210        2.42227678181072        0.21930993144167
C           -3.97448665209021        1.85820689158660        0.22929114428465
C           -3.87693780903937        0.48611143822970        0.38231431566202
N           -0.50056872426650       -0.87291724472688        0.38910926282263
H            3.71095787916283        0.61393228603683        0.08016078086060
H            5.44224441110188        1.57916054338191        1.55903034621833
H            5.96461016526796        0.50035231158462        3.71008031745122
H            4.76573862696742       -1.54377231837254        4.39477677757987
H            3.02140449714357       -2.50203168977930        2.90140747353387
H            2.88204940892989       -4.05445901173401       -0.92241283075091
H            3.89458266729959       -4.49232088545998       -3.15061967080097
H            4.22179775890786       -2.62304166692822       -4.72743886697861
H            3.54184587311628       -0.34078243395045       -4.09712353824827
H            2.53616934233673        0.08548084446788       -1.88446722853428
H            2.42171565344075        2.84107467977980        0.00215894794244
H            2.99561959457725        5.16894504969077       -0.61893504066092
H            1.27043131579989        6.64092657776115       -1.58602353228599
H           -1.01755533435186        5.79472962370938       -1.94109218001503
H           -1.57944935802544        3.46508037787845       -1.32955645321072
H           -1.38541425231652       -2.83810295542532        0.78095782026351
H           -2.62504495555991       -4.92261507571514        1.14568025546728
H           -5.07676034604003       -4.94969578397477        1.24341981096706
H           -6.36187857720336       -2.84893990813331        0.97772183685695
H           -7.17464094933429       -0.32832810804584        0.65828408801794
H           -7.35386768572947        2.12132465226488        0.34694051480977
H           -5.33607193043050        3.49133213276429        0.10027422974187
H           -3.09356170902969        2.46785520428753        0.13134007227595
