  57
        -90.44880683
 C         -5.5602450421       -2.5822920659        0.0643969341
 C         -5.6927536379       -1.1994993614        0.0527461661
 C         -4.5658021254       -0.3997297331        0.0317046311
 C         -3.2938620197       -0.9551001434        0.0204564363
 C         -3.1688263925       -2.3461573197        0.0290616183
 C         -4.3078760101       -3.1548243049        0.0525970781
 O         -1.9742696556       -2.9862850130        0.0157672516
 C         -0.8259065946       -2.2597780882       -0.0106018414
 C          0.3788205672       -2.9805010494       -0.0288965959
 C          1.5747469717       -2.3243373308       -0.0466350179
 C          1.6378989131       -0.9041278091       -0.0482001281
 C          2.9117449501       -0.2720559035       -0.0534656463
 C          3.1205043556        1.1266920880       -0.0282262248
 C          4.3824933189        1.6399876191        0.0096570525
 C          5.5225779041        0.7806070509        0.0157835832
 C          6.8386083842        1.2134498873        0.0434564860
 C          7.8964426690        0.3071608222        0.0421937738
 C          7.6372785207       -1.0551784599        0.0045321762
 C          6.3408361529       -1.5254272377       -0.0305670813
 C          5.2483304104       -0.6304289696       -0.0268836959
 N          4.0099359264       -1.0697088699       -0.0704315322
 C          0.4134477217       -0.2033663901       -0.0374050113
 C         -0.7966304695       -0.8565527838       -0.0193258142
 C         -2.0799484472       -0.0623487288       -0.0003661421
 C         -2.0926329611        0.8995094215        1.1737009441
 C         -2.0566652049        0.6015850108        2.5174186762
 C         -2.0661508559        1.6507795834        3.4271879937
 C         -2.1105730830        2.9666918950        2.9927670858
 C         -2.1477269862        3.2693238569        1.6407995183
 C         -2.1390827973        2.2276474713        0.7281775244
 C         -2.1698240588        2.2272200576       -0.7266699414
 C         -2.2253511446        3.2682598843       -1.6383889252
 C         -2.2492982474        2.9649805779       -2.9905555742
 C         -2.2171512319        1.6490910597       -3.4261026689
 C         -2.1607422972        0.6005254912       -2.5172037226
 C         -2.1376983989        0.8989674854       -1.1732224369
 H         -6.4373092506       -3.2109768315        0.0817298664
 H         -6.6729798054       -0.7486948400        0.0599794276
 H         -4.6635711731        0.6760030094        0.0230609700
 H         -4.1750909492       -4.2252343681        0.0598481477
 H          0.3263139396       -4.0581708424       -0.0281972850
 H          2.5066914684       -2.8670442909       -0.0631615732
 H          2.2635758361        1.7817128693       -0.0226529863
 H          4.5440003426        2.7074711901        0.0440357770
 H          7.0377617908        2.2761258047        0.0619847697
 H          8.9132328204        0.6678178225        0.0683232638
 H          8.4582797424       -1.7577052657        0.0027285512
 H          6.1305325967       -2.5829025796       -0.0485377558
 H          0.4076308442        0.8754594430       -0.0406578755
 H         -2.0204721651       -0.4232226850        2.8574828336
 H         -2.0385630750        1.4385516768        4.4856417437
 H         -2.1160226657        3.7665075499        3.7187522146
 H         -2.1810662627        4.2957980659        1.3070689016
 H         -2.2505625505        4.2946580150       -1.3038093411
 H         -2.2940274483        3.7642082092       -3.7157855362
 H         -2.2372221998        1.4363459267       -4.4845732899
 H         -2.1354129764       -0.4242959262       -2.8581685358
  57
        -90.44839638
 C         -5.7408950621       -2.0168312869        0.3626150477
 C         -5.5878188618       -0.6621012201        0.6276894091
 C         -4.3389439312       -0.0774243077        0.5306291363
 C         -3.2244365957       -0.8251032238        0.1776815583
 C         -3.3855825314       -2.1884892316       -0.0817135522
 C         -4.6482292422       -2.7782136583        0.0107441135
 O         -2.3596750161       -3.0067250142       -0.4253310294
 C         -1.0893540912       -2.5223604107       -0.4075802982
 C         -0.0569409919       -3.4423060372       -0.6459915794
 C          1.2517391895       -3.0476657552       -0.6129240117
 C          1.5986608800       -1.7019732050       -0.3354223339
 C          2.9351280065       -1.2223819449       -0.2524062045
 C          4.0937332852       -2.0081259052       -0.4514885817
 C          5.3352795890       -1.4669172472       -0.2962097129
 C          5.4958147206       -0.0950009904        0.0644631733
 C          6.7151969141        0.5402095037        0.2371735381
 C          6.7842392854        1.8868563084        0.5864296744
 C          5.6166845228        2.6157788866        0.7574176677
 C          4.3831369201        2.0223276013        0.5854251173
 C          4.2825434301        0.6583234069        0.2343141906
 N          3.1122284070        0.0873132186        0.0566394957
 C          0.5381229512       -0.7899361715       -0.1217142872
 C         -0.7776442406       -1.1769655836       -0.1552733470
 C         -1.8802071643       -0.1619591845        0.0223262600
 C         -1.5788528023        0.7971975671        1.1546924619
 C         -1.4390751914        0.5141447712        2.4950260643
 C         -1.1502370465        1.5576697856        3.3647839781
 C         -1.0049531178        2.8538856017        2.8947898204
 C         -1.1451958464        3.1421786911        1.5464000193
 C         -1.4340922607        2.1062403754        0.6739903358
 C         -1.6382393545        2.0961400713       -0.7663459608
 C         -1.6106569979        3.1183611243       -1.7000953978
 C         -1.8528061751        2.8097729681       -3.0293660041
 C         -2.1171613863        1.5066209564       -3.4216079080
 C         -2.1451889017        0.4764791924       -2.4907597470
 C         -1.9048404812        0.7812663501       -1.1699317460
 H         -6.7146673431       -2.4767257817        0.4329430356
 H         -6.4419274503       -0.0642357127        0.9057013566
 H         -4.2162510989        0.9772971330        0.7282297781
 H         -4.7376183575       -3.8327992320       -0.1978150540
 H         -0.3279723499       -4.4674056948       -0.8463981191
 H          2.0227934097       -3.7793737267       -0.7928555402
 H          3.9798297157       -3.0476675367       -0.7150625017
 H          6.2216880200       -2.0689329631       -0.4331824259
 H          7.6239347314       -0.0262675840        0.0898859592
 H          7.7456129380        2.3582328368        0.7210917383
 H          5.6713944426        3.6596123240        1.0300985067
 H          3.4692351146        2.5769661189        0.7296365128
 H          0.7958524192        0.2410451588        0.0679250471
 H         -1.5497594887       -0.4957864248        2.8622676902
 H         -1.0355449386        1.3563802256        4.4195278160
 H         -0.7784681113        3.6492951186        3.5897122487
 H         -1.0306162184        4.1532015313        1.1848150914
 H         -1.4059604982        4.1352428753       -1.4001268727
 H         -1.8368249655        3.5950209893       -3.7709239185
 H         -2.3039842481        1.2893370993       -4.4627974703
 H         -2.3510288146       -0.5385200049       -2.7989261632
  57
        -90.44702612
 C         -5.2990602798       -2.7231451020        0.6039185030
 C         -5.3940793917       -1.4112808057        1.0481204297
 C         -4.3333438114       -0.5426624215        0.8676308521
 C         -3.1606988779       -0.9666251515        0.2606272687
 C         -3.0650978547       -2.2937569448       -0.1660787601
 C         -4.1417010047       -3.1659020033        0.0010935486
 O         -1.9449577302       -2.8092567975       -0.7349465845
 C         -0.7923085799       -2.0877916661       -0.6806113218
 C          0.3979456774       -2.7558759530       -1.0045734829
 C          1.6013057855       -2.1261836905       -0.8634481293
 C          1.6811496325       -0.7855383952       -0.3992006135
 C          2.9565581411       -0.2161676545       -0.1346617210
 C          3.1617263895        1.0698267597        0.4195650510
 C          4.4029297325        1.4565121400        0.8280893736
 C          5.5243341241        0.5838583252        0.6869463039
 C          6.8161749948        0.8899155321        1.0818483431
 C          7.8618041984       -0.0117624694        0.8919467077
 C          7.6192097755       -1.2274504944        0.2703739918
 C          6.3491670200       -1.5620697086       -0.1531244617
 C          5.2655641179       -0.6779562938        0.0466335901
 N          4.0523425901       -0.9875876506       -0.3539414278
 C          0.4644086276       -0.1078890673       -0.1683055768
 C         -0.7495561883       -0.7397596582       -0.2887232130
 C         -2.0389076480       -0.0001930002       -0.0276114918
 C         -1.8774595151        1.0612347322        1.0368424305
 C         -1.4946137561        0.8979426622        2.3503050616
 C         -1.3713232111        2.0271207309        3.1492459064
 C         -1.6298827859        3.2900837133        2.6380207714
 C         -2.0189852496        3.4580408356        1.3183913408
 C         -2.1402584391        2.3359557179        0.5153469103
 C         -2.5015575600        2.1967868288       -0.8869666060
 C         -2.8761943014        3.1387783359       -1.8303294296
 C         -3.1805280465        2.7096651637       -3.1124714148
 C         -3.1083473568        1.3669935748       -3.4497452270
 C         -2.7330690579        0.4169723061       -2.5089317912
 C         -2.4336112580        0.8409704085       -1.2336768474
 H         -6.1287773007       -3.4009068954        0.7337617069
 H         -6.2971019534       -1.0650917295        1.5266011501
 H         -4.4096381601        0.4830951064        1.1969609583
 H         -4.0377783362       -4.1821888610       -0.3450882802
 H          0.3335813017       -3.7786982722       -1.3422021723
 H          2.5246398301       -2.6351313139       -1.0908545874
 H          2.3137012587        1.7207192393        0.5613571123
 H          4.5558542657        2.4194252648        1.2931215596
 H          7.0090726883        1.8525486267        1.5341515301
 H          8.8567876151        0.2420694097        1.2237630266
 H          8.4310821809       -1.9236083257        0.1186775941
 H          6.1465547885       -2.5184609929       -0.6086496262
 H          0.4730787576        0.9274228636        0.1328776840
 H         -1.2848880543       -0.0849121820        2.7463592134
 H         -1.0657353263        1.9203193318        4.1794548518
 H         -1.5242887519        4.1544108122        3.2772341561
 H         -2.2166439686        4.4435649139        0.9239087258
 H         -2.9355951625        4.1855530199       -1.5719630110
 H         -3.4795732299        3.4302507628       -3.8594808431
 H         -3.3498968427        1.0547384867       -4.4548623528
 H         -2.6823115617       -0.6287210145       -2.7755775295
