  65
  -105.152522598900       0.556821039772790      !
 C         -7.0754042375        2.0515976404       -0.3602839917
 C         -6.3136469574        0.7429032708       -0.0784017016
 C         -7.3065691541       -0.4042620629        0.1871978293
 C         -5.4561446907        0.9360923800        1.1554016808
 C         -6.0543774171        1.2571234022        2.3661222864
 C         -5.3178738024        1.4352896946        3.5226763973
 C         -3.9407377491        1.2883760554        3.4837659234
 C         -3.3190612879        0.9714422030        2.2966480814
 C         -4.0617525527        0.7962391714        1.1219869363
 N         -3.4100504262        0.4803433992       -0.0535725939
 C         -1.9926591072        0.3336368321       -0.0379444710
 C         -1.1737163817        1.4608472665       -0.1833959936
 C          0.1858269081        1.3029905331       -0.1684157745
 C          0.7657710727        0.0319545813       -0.0133483411
 C         -0.0557849904       -1.1120141701        0.1322211444
 C         -1.4432893470       -0.9203739822        0.1175268427
 C          0.5520748446       -2.4129163994        0.2868794403
 C         -0.1938810298       -3.5923541232        0.4301920176
 C          0.4175424766       -4.8149171776        0.5728285476
 C          1.8090680862       -4.9129676196        0.5784100922
 C          2.5689900531       -3.7802044169        0.4411909635
 C          1.9617333772       -2.5227094756        0.2945317753
 C          2.7894438321       -1.3643683964        0.1533211924
 N          4.1107623381       -1.4641349284        0.1662604320
 C          4.8977899948       -0.4021060860        0.0394376562
 C          6.2882981393       -0.5021240532        0.0569252638
 C          7.0857382196        0.6307790272       -0.0763048946
 C          8.4893648329        0.5102598530       -0.0516493527
 N          9.6313027419        0.3942268192       -0.0275291986
 C          6.4899869760        1.8998635293       -0.2337491661
 C          7.3005473222        3.0452675693       -0.3676060410
 N          7.9454153594        3.9886159705       -0.4773076494
 C          5.1049557788        2.0238533606       -0.2557522184
 C          4.2848671467        0.9022082077       -0.1216613578
 N          2.9615901766        0.9880729312       -0.1360824800
 C          2.1884121049       -0.0844198832       -0.0034210883
 C         -4.0876782622        0.2866663379       -1.2410747287
 C         -3.3687552479       -0.0177256270       -2.4041773462
 C         -4.0175441073       -0.2247220369       -3.6009881867
 C         -5.3984360631       -0.1290834516       -3.6618145255
 C         -6.1101703168        0.1812217511       -2.5177222056
 C         -5.4841517743        0.3955791334       -1.2974586076
 H         -7.7170614511        1.9468681979       -1.2305145319
 H         -6.3694952063        2.8581762654       -0.5489968702
 H         -7.6948943122        2.3292713295        0.4876066389
 H         -7.9516564625       -0.5651954125       -0.6717370803
 H         -6.7639595297       -1.3261941021        0.3870275297
 H         -7.9333432471       -0.1825294583        1.0460847198
 H         -7.1263587433        1.3715091895        2.4148405766
 H         -5.8155281222        1.6845201241        4.4468548876
 H         -3.3510481434        1.4199088163        4.3777553218
 H         -2.2467785425        0.8545710725        2.2690531233
 H         -1.6243564832        2.4340589872       -0.3044947892
 H          0.8479141988        2.1480847546       -0.2776908752
 H         -2.1160854914       -1.7563601988        0.2254421831
 H         -1.2716746539       -3.5528645416        0.4292261886
 H         -0.1836655795       -5.7053015303        0.6809367939
 H          2.2822349080       -5.8765726989        0.6905306350
 H          3.6474472900       -3.8225998578        0.4418855007
 H          6.7394079992       -1.4746411777        0.1773126062
 H          4.6464309402        2.9930051700       -0.3754730906
 H         -2.2930394448       -0.0884601584       -2.3601486508
 H         -3.4457369622       -0.4594365234       -4.4854751409
 H         -5.9174690497       -0.2912397832       -4.5935762121
 H         -7.1847002216        0.2579433166       -2.5839333405
  65
  -105.152202088400       0.396660732606264      !
 C         -7.2339412790        1.8263225639       -0.2825320219
 C         -6.3182209483        0.6061915148       -0.0725437420
 C         -7.1645433267       -0.6615319732        0.1538785930
 C         -5.4654533237        0.8389115168        1.1579283829
 C         -6.0730529631        1.0845327561        2.3815753317
 C         -5.3393471225        1.2920667356        3.5351764558
 C         -3.9554309169        1.2518793650        3.4803817050
 C         -3.3246062088        1.0034177628        2.2818007680
 C         -4.0650216967        0.7950912354        1.1111426863
 N         -3.4041229599        0.5468902300       -0.0753646389
 C         -1.9866079948        0.3984005173       -0.0570353564
 C         -1.1567803362        1.5144776186       -0.2247159035
 C          0.2013482568        1.3432082299       -0.2039480969
 C          0.7690023593        0.0704910155       -0.0186566981
 C         -0.0641322376       -1.0617509191        0.1506290631
 C         -1.4493515413       -0.8569299918        0.1261310856
 C          0.5291604189       -2.3648105792        0.3387840847
 C         -0.2295502455       -3.5321888914        0.5109845815
 C          0.3686746057       -4.7569761983        0.6865190362
 C          1.7590847064       -4.8694578363        0.6974500580
 C          2.5311728070       -3.7486660305        0.5326396524
 C          1.9373820628       -2.4890868759        0.3525531919
 C          2.7771620012       -1.3430828146        0.1849088219
 N          4.0971701673       -1.4572385241        0.2025124021
 C          4.8962174820       -0.4076493878        0.0507478230
 C          6.2854264261       -0.5235729102        0.0722556550
 C          7.0961618149        0.5960327005       -0.0895489365
 C          8.4983094906        0.4593218812       -0.0629963871
 N          9.6388118400        0.3304879669       -0.0381539359
 C          6.5150786814        1.8675484061       -0.2794086521
 C          7.3396325543        2.9989989216       -0.4433554147
 N          7.9973069057        3.9300804649       -0.5787218228
 C          5.1315298060        2.0073197132       -0.3044876115
 C          4.2981795299        0.8991179264       -0.1427903601
 N          2.9759165468        0.9997463556       -0.1593750294
 C          2.1904559918       -0.0605274889       -0.0027491504
 C         -4.0759592847        0.3797712675       -1.2699392257
 C         -3.3459023032        0.1843635130       -2.4493360146
 C         -3.9874973578        0.0114801000       -3.6554290328
 C         -5.3720260202        0.0265950474       -3.7075894038
 C         -6.0954080157        0.2212337726       -2.5452614010
 C         -5.4768100254        0.4051531520       -1.3162922232
 H         -7.8752055941        1.6863831536       -1.1477352025
 H         -6.6320780965        2.7190106907       -0.4412009695
 H         -7.8682818922        1.9894281977        0.5837036304
 H         -7.8012681901       -0.8587972983       -0.7039948882
 H         -6.5136927326       -1.5211352776        0.3033055832
 H         -7.7955191032       -0.5528187024        1.0315676629
 H         -7.1501265327        1.1124950286        2.4436943466
 H         -5.8442944081        1.4817241564        4.4694580267
 H         -3.3676698903        1.4124288515        4.3709948538
 H         -2.2469349104        0.9692909948        2.2410208767
 H         -1.5973593105        2.4894236212       -0.3672476884
 H          0.8717822812        2.1794677287       -0.3295804396
 H         -2.1305648542       -1.6838260892        0.2501720689
 H         -1.3068482514       -3.4814192180        0.5073393873
 H         -0.2420952461       -5.6378877736        0.8164903829
 H          2.2218002860       -5.8348410727        0.8350211435
 H          3.6091126228       -3.8023372559        0.5364164446
 H          6.7247989061       -1.4981107844        0.2172461649
 H          4.6846051357        2.9785541739       -0.4489654847
 H         -2.2677036883        0.1717326132       -2.4098902557
 H         -3.4075914942       -0.1353088989       -4.5535353696
 H         -5.8853510493       -0.1118787371       -4.6462835893
 H         -7.1730712960        0.2259937743       -2.6035055842
  65
  -105.149659125100       2.690011848822084E-002 !
 C         -7.6936163857        0.6739888696       -0.0466772675
 C         -6.2381145093        0.2219677302        0.0914325656
 C         -6.2267427633       -1.2501665659        0.5655463010
 C         -5.4788018869        1.0209482390        1.1327805168
 C         -6.1036107631        1.6436307055        2.2013771924
 C         -5.3794140569        2.2279751315        3.2274020290
 C         -3.9967921953        2.1652722578        3.2141367372
 C         -3.3472348243        1.5690376461        2.1542443080
 C         -4.0735508096        1.0265676892        1.0901619981
 N         -3.4177276698        0.5002070062       -0.0092259498
 C         -2.0019205562        0.3630464267        0.0036608567
 C         -1.1695080776        1.4875485394       -0.0938651866
 C          0.1879522242        1.3163582498       -0.0842382261
 C          0.7563128434        0.0340273168        0.0100956305
 C         -0.0762160073       -1.1075013342        0.0958693403
 C         -1.4619945335       -0.9013571313        0.0930726003
 C          0.5198790407       -2.4203117574        0.1809038099
 C         -0.2360321066       -3.5989583823        0.2679727406
 C          0.3645822860       -4.8328289060        0.3437729018
 C          1.7551766199       -4.9438369995        0.3357094658
 C          2.5248509285       -3.8125499790        0.2516352972
 C          1.9285665086       -2.5436119283        0.1738137539
 C          2.7667923750       -1.3877333544        0.0883666968
 N          4.0871622454       -1.5003196837        0.0787447007
 C          4.8838713314       -0.4405609268        0.0114877213
 C          6.2735554696       -0.5552629330       -0.0012442854
 C          7.0812336476        0.5761807151       -0.0626068917
 C          8.4840211181        0.4424384095       -0.0737230326
 N          9.6255815452        0.3220152590       -0.0848418751
 C          6.4973845617        1.8596893414       -0.1130100107
 C          7.3195280545        3.0034117530       -0.1670730363
 N          7.9747016684        3.9452687861       -0.2087153437
 C          5.1135629222        1.9983910240       -0.1082597845
 C          4.2832445264        0.8778848608       -0.0506914860
 N          2.9607323026        0.9761706776       -0.0541903646
 C          2.1777372276       -0.0949646571        0.0119566482
 C         -4.0892167471        0.3180430675       -1.2065428611
 C         -3.3683318294        0.2228829898       -2.4005093767
 C         -4.0244192193        0.0960940227       -3.6059910210
 C         -5.4082984301        0.0740785813       -3.6369306440
 C         -6.1251325029        0.1543723263       -2.4547012566
 C         -5.4922628458        0.2668083418       -1.2268794970
 H         -8.2219496933        0.0470551194       -0.7587883288
 H         -7.7471053634        1.7089802920       -0.3764424203
 H         -8.2151673098        0.5754173884        0.9008192473
 H         -6.7364477619       -1.8800415772       -0.1602797472
 H         -5.2064657391       -1.6100151614        0.6792583615
 H         -6.7307777075       -1.3371568397        1.5255530589
 H         -7.1791117285        1.6744904036        2.2559159092
 H         -5.8967085461        2.7087973458        4.0430661844
 H         -3.4218135228        2.5854375480        4.0249334598
 H         -2.2695508914        1.5238673925        2.1456427384
 H         -1.6088662202        2.4697352162       -0.1830697626
 H          0.8576919156        2.1594860000       -0.1577040369
 H         -2.1409273890       -1.7369492823        0.1584178758
 H         -1.3134251372       -3.5498990631        0.2758166988
 H         -0.2443688542       -5.7221808762        0.4099740199
 H          2.2199715042       -5.9161886392        0.3962999056
 H          3.6028624499       -3.8646947022        0.2439148687
 H          6.7153236224       -1.5385740690        0.0399672413
 H          4.6639236879        2.9782543693       -0.1481501966
 H         -2.2901148989        0.2602387331       -2.3766201255
 H         -3.4551161462        0.0238181133       -4.5198328069
 H         -5.9315254082       -0.0145205977       -4.5763060698
 H         -7.2006779834        0.1192240083       -2.5076599959
  65
  -105.149360808000       1.961810913272469E-002 !
 C         -7.6365862045        1.1662129943        0.2685234035
 C         -6.1195461114        1.2304142663        0.4604835612
 C         -5.7910192974        2.4534982202        1.3487427060
 C         -5.3794562278        1.4243168708       -0.8472596923
 C         -5.9502955100        2.0338880877       -1.9533663522
 C         -5.2119398320        2.3116929823       -3.0915885401
 C         -3.8674302066        1.9848424424       -3.1368390190
 C         -3.2773895455        1.3618942907       -2.0581168190
 C         -4.0224817139        1.0699795752       -0.9116953525
 N         -3.4279649132        0.3949402483        0.1417301262
 C         -2.0156220274        0.2339419218        0.1253490555
 C         -1.2117312704        1.3101564101        0.5226576326
 C          0.1499768754        1.1775525010        0.4893917207
 C          0.7498113715       -0.0222242496        0.0702974299
 C         -0.0543491029       -1.1176034760       -0.3275925993
 C         -1.4441511549       -0.9483785740       -0.2969965996
 C          0.5739401298       -2.3469626688       -0.7527443372
 C         -0.1534591698       -3.4832672418       -1.1372741082
 C          0.4772167234       -4.6369250183       -1.5380508182
 C          1.8700710915       -4.7059949496       -1.5718724608
 C          2.6121709807       -3.6153698267       -1.1983954060
 C          1.9852530489       -2.4289711116       -0.7846252021
 C          2.7950073131       -1.3152716759       -0.3963398602
 N          4.1176790001       -1.3859783467       -0.4332500345
 C          4.8880723039       -0.3629944914       -0.0829998479
 C          6.2799863955       -0.4321451544       -0.1235878934
 C          7.0588684599        0.6601007335        0.2476764683
 C          8.4644596010        0.5704116763        0.2030480106
 N          9.6080440873        0.4872998681        0.1427241328
 C          6.4426419577        1.8562146247        0.6721853533
 C          7.2341733702        2.9607980915        1.0473304439
 N          7.8649024004        3.8730366044        1.3433185971
 C          5.0557730239        1.9475649763        0.7237201627
 C          4.2541707740        0.8652950513        0.3571429966
 N          2.9301432401        0.9197541755        0.3986301555
 C          2.1737303147       -0.1112775183        0.0383843457
 C         -4.2012313721       -0.2796038554        1.0709641718
 C         -3.6310031008       -1.2515623132        1.8985040150
 C         -4.4142100403       -1.9792142697        2.7689652045
 C         -5.7780285508       -1.7494744594        2.8250502547
 C         -6.3381181308       -0.7495688114        2.0472373160
 C         -5.5724323923        0.0128032527        1.1797054778
 H         -8.1396300611        1.0852780287        1.2277348283
 H         -7.9124068117        0.3158197874       -0.3514124275
 H         -8.0006799032        2.0776287216       -0.1970205993
 H         -4.7184437935        2.5329024675        1.5136045394
 H         -6.1354335966        3.3669448260        0.8684100353
 H         -6.2806384696        2.3557930224        2.3153304775
 H         -6.9908694227        2.3131377009       -1.9403491953
 H         -5.6856378554        2.7902858478       -3.9346027757
 H         -3.2793575656        2.2056238698       -4.0142557350
 H         -2.2346069527        1.0874532147       -2.1009617572
 H         -1.6755689443        2.2302786944        0.8440632886
 H          0.7980831958        1.9881956359        0.7848307392
 H         -2.1008424732       -1.7424388373       -0.6162922028
 H         -1.2318247764       -3.4657091292       -1.1202423869
 H         -0.1099445979       -5.4953746957       -1.8282704953
 H          2.3583886438       -5.6148749223       -1.8890040229
 H          3.6911847135       -3.6381667790       -1.2102343589
 H          6.7470023647       -1.3486868837       -0.4489947056
 H          4.5813040383        2.8606668597        1.0482584493
 H         -2.5687840682       -1.4348903537        1.8575739935
 H         -3.9586903920       -2.7288684614        3.3979287947
 H         -6.4025942385       -2.3271124226        3.4886090530
 H         -7.3955124667       -0.5648027455        2.1394117655
