  65
       -105.52408312
 C         -7.0754042375        2.0515976404       -0.3602839917
 C         -6.3136469574        0.7429032708       -0.0784017016
 C         -7.3065691541       -0.4042620629        0.1871978293
 C         -5.4561446907        0.9360923800        1.1554016808
 C         -6.0543774171        1.2571234022        2.3661222864
 C         -5.3178738024        1.4352896946        3.5226763973
 C         -3.9407377491        1.2883760554        3.4837659234
 C         -3.3190612879        0.9714422030        2.2966480814
 C         -4.0617525527        0.7962391714        1.1219869363
 N         -3.4100504262        0.4803433992       -0.0535725939
 C         -1.9926591072        0.3336368321       -0.0379444710
 C         -1.1737163817        1.4608472665       -0.1833959936
 C          0.1858269081        1.3029905331       -0.1684157745
 C          0.7657710727        0.0319545813       -0.0133483411
 C         -0.0557849904       -1.1120141701        0.1322211444
 C         -1.4432893470       -0.9203739822        0.1175268427
 C          0.5520748446       -2.4129163994        0.2868794403
 C         -0.1938810298       -3.5923541232        0.4301920176
 C          0.4175424766       -4.8149171776        0.5728285476
 C          1.8090680862       -4.9129676196        0.5784100922
 C          2.5689900531       -3.7802044169        0.4411909635
 C          1.9617333772       -2.5227094756        0.2945317753
 C          2.7894438321       -1.3643683964        0.1533211924
 N          4.1107623381       -1.4641349284        0.1662604320
 C          4.8977899948       -0.4021060860        0.0394376562
 C          6.2882981393       -0.5021240532        0.0569252638
 C          7.0857382196        0.6307790272       -0.0763048946
 C          8.4893648329        0.5102598530       -0.0516493527
 N          9.6313027419        0.3942268192       -0.0275291986
 C          6.4899869760        1.8998635293       -0.2337491661
 C          7.3005473222        3.0452675693       -0.3676060410
 N          7.9454153594        3.9886159705       -0.4773076494
 C          5.1049557788        2.0238533606       -0.2557522184
 C          4.2848671467        0.9022082077       -0.1216613578
 N          2.9615901766        0.9880729312       -0.1360824800
 C          2.1884121049       -0.0844198832       -0.0034210883
 C         -4.0876782622        0.2866663379       -1.2410747287
 C         -3.3687552479       -0.0177256270       -2.4041773462
 C         -4.0175441073       -0.2247220369       -3.6009881867
 C         -5.3984360631       -0.1290834516       -3.6618145255
 C         -6.1101703168        0.1812217511       -2.5177222056
 C         -5.4841517743        0.3955791334       -1.2974586076
 H         -7.7170614511        1.9468681979       -1.2305145319
 H         -6.3694952063        2.8581762654       -0.5489968702
 H         -7.6948943122        2.3292713295        0.4876066389
 H         -7.9516564625       -0.5651954125       -0.6717370803
 H         -6.7639595297       -1.3261941021        0.3870275297
 H         -7.9333432471       -0.1825294583        1.0460847198
 H         -7.1263587433        1.3715091895        2.4148405766
 H         -5.8155281222        1.6845201241        4.4468548876
 H         -3.3510481434        1.4199088163        4.3777553218
 H         -2.2467785425        0.8545710725        2.2690531233
 H         -1.6243564832        2.4340589872       -0.3044947892
 H          0.8479141988        2.1480847546       -0.2776908752
 H         -2.1160854914       -1.7563601988        0.2254421831
 H         -1.2716746539       -3.5528645416        0.4292261886
 H         -0.1836655795       -5.7053015303        0.6809367939
 H          2.2822349080       -5.8765726989        0.6905306350
 H          3.6474472900       -3.8225998578        0.4418855007
 H          6.7394079992       -1.4746411777        0.1773126062
 H          4.6464309402        2.9930051700       -0.3754730906
 H         -2.2930394448       -0.0884601584       -2.3601486508
 H         -3.4457369622       -0.4594365234       -4.4854751409
 H         -5.9174690497       -0.2912397832       -4.5935762121
 H         -7.1847002216        0.2579433166       -2.5839333405
