  41
  -63.0229463016000       0.395129873707580      !
 C         -5.8537163966        2.1184564291        0.3153312508
 C         -5.8180065642        0.8732199743       -0.2897707454
 C         -4.6235555421        0.1871065502       -0.4075446953
 C         -3.4433377682        0.7389102612        0.0879587683
 C         -2.1664374646        0.0537182619       -0.0121481801
 N         -1.0105070072        0.7459001865       -0.0743746606
 C         -0.0151002142       -0.1162890210       -0.1438090262
 C          1.3784093975        0.2852033481       -0.2088683329
 C          1.6849383686        1.4762340387       -0.9087214961
 C          2.9698747526        1.9191904157       -1.0009018952
 C          4.0288725690        1.2074486109       -0.3952659773
 C          5.3686246264        1.6356349976       -0.4771171675
 C          6.3662450391        0.9334307558        0.1406307013
 C          6.0677287399       -0.2289964813        0.8683725695
 C          4.7783749317       -0.6721197061        0.9635220059
 C          3.7266376625        0.0280894055        0.3348896055
 C          2.3900935384       -0.4080307959        0.4165650259
 N         -0.4875931032       -1.3999576697       -0.1378348078
 C          0.1368342794       -2.6019439087       -0.2858801823
 C         -0.5842275908       -3.7483782514       -0.2402587059
 C         -1.9862360096       -3.7072806083       -0.0344996435
 C         -2.6235207363       -2.5056658276        0.0514924243
 C         -1.8805660394       -1.3163438910       -0.0408891651
 C         -3.4857426343        2.0034390348        0.6767267548
 C         -4.6811083859        2.6843342014        0.7905643642
 H         -6.7898966007        2.6493271460        0.4075107330
 H         -6.7268542729        0.4368057253       -0.6790622359
 H         -4.6023940547       -0.7661636779       -0.9136049432
 H          0.8690971961        2.0176078455       -1.3613062771
 H          3.1985618983        2.8268574595       -1.5410033521
 H          5.5926042188        2.5326558481       -1.0368913750
 H          7.3909781856        1.2685648116        0.0748604379
 H          6.8671811031       -0.7703050180        1.3529472594
 H          4.5451693558       -1.5675220550        1.5228377403
 H          2.1765199015       -1.2798546122        1.0191761617
 H          1.2010636890       -2.5814769033       -0.4579862530
 H         -0.0865685726       -4.6971411851       -0.3577144171
 H         -2.5368384430       -4.6314074303        0.0383658637
 H         -3.6890738081       -2.4433129248        0.2000732709
 H         -2.5645747785        2.4318867845        1.0396138123
 H         -4.7022351896        3.6604921309        1.2533918676
  41
  -63.0226045677000       0.275226241256243      !
 C         -5.4865103951        2.5027015529       -0.0107675959
 C         -4.2643907717        2.9486407622       -0.4887158647
 C         -3.1628693765        2.1174599129       -0.4605481676
 C         -3.2641441997        0.8202020450        0.0443022926
 C         -2.0814625447       -0.0221456044        0.0535687663
 N         -0.8458310016        0.5207465117        0.0843991961
 C          0.0344116112       -0.4590149259        0.1206405518
 C          1.4687326473       -0.2465595391        0.2106600292
 C          2.2879781376       -1.0648655046        1.0216745475
 C          3.6310267172       -0.8380074319        1.1023216765
 C          4.2364498568        0.2174516198        0.3880120866
 C          5.6220728416        0.4683831062        0.4467785196
 C          6.1721037595        1.5110928004       -0.2453315690
 C          5.3607899770        2.3503096342       -1.0259063397
 C          4.0139586428        2.1336932013       -1.1026105535
 C          3.4146184907        1.0647243496       -0.4019610674
 C          2.0336078786        0.8098627913       -0.4684805729
 N         -0.5922645684       -1.6740515495        0.0782764243
 C         -0.1039437681       -2.9417072846       -0.0264009338
 C         -0.9580174645       -3.9888409458       -0.1279426570
 C         -2.3582371300       -3.7721796789       -0.1579874610
 C         -2.8507476931       -2.5027509334       -0.0947660467
 C         -1.9668890218       -1.4176426261        0.0325933375
 C         -4.4916194003        0.3892464525        0.5452558730
 C         -5.5923214476        1.2247392930        0.5119748617
 H         -6.3501545847        3.1508864723       -0.0364143751
 H         -4.1735335083        3.9495572441       -0.8853526720
 H         -2.2044466142        2.4523909613       -0.8246485559
 H          1.8389588580       -1.8484682401        1.6151107545
 H          4.2518466509       -1.4625435782        1.7294327455
 H          6.2420590035       -0.1793532840        1.0504823935
 H          7.2348612749        1.6980057072       -0.1964078982
 H          5.8130759632        3.1697216110       -1.5652820165
 H          3.3846499049        2.7764386318       -1.7011248574
 H          1.4008183972        1.4499268705       -1.0640867385
 H          0.9685459913       -3.0509189392       -0.0530586376
 H         -0.5679926119       -4.9903772406       -0.2084004988
 H         -3.0210348299       -4.6169560376       -0.2559484373
 H         -3.9081562385       -2.3084595952       -0.1656137474
 H         -4.5794834502       -0.5900688628        0.9902420431
 H         -6.5387401244        0.8788939267        0.9028973088
  41
  -63.0225822481000       0.268801978558906      !
 C         -5.4552595543        2.5211193332        0.2307630580
 C         -4.2642133652        2.8696551287        0.8477857440
 C         -3.1712220056        2.0302411932        0.7709034913
 C         -3.2512547053        0.8220837939        0.0767913877
 C         -2.0759576145       -0.0290637954        0.0159350577
 N         -0.8376918387        0.4949966297        0.1344156314
 C          0.0362699056       -0.4881490330        0.0544839937
 C          1.4712658234       -0.2893909118        0.1642885852
 C          2.2941951045       -1.1981170661        0.8679563606
 C          3.6350227980       -0.9723529758        0.9830840757
 C          4.2339409053        0.1705230048        0.4122859016
 C          5.6160307015        0.4270062320        0.5156382706
 C          6.1591705172        1.5545526430       -0.0341817176
 C          5.3448180584        2.4756826743       -0.7126465636
 C          4.0014153511        2.2559700244       -0.8292980335
 C          3.4087519109        1.1022091336       -0.2721275501
 C          2.0302869195        0.8469068543       -0.3770209767
 N         -0.5985751448       -1.6853723938       -0.1265286216
 C         -0.1224524804       -2.9417241168       -0.3549879885
 C         -0.9868273771       -3.9750212219       -0.4997087637
 C         -2.3852269430       -3.7581750905       -0.4131115810
 C         -2.8671678563       -2.4941224153       -0.2475296516
 C         -1.9716173924       -1.4160483591       -0.1417483286
 C         -4.4466800819        0.4896518715       -0.5583542729
 C         -5.5387908251        1.3332002051       -0.4764741914
 H         -6.3118293516        3.1762133981        0.2926196157
 H         -4.1905917690        3.8008010275        1.3906674462
 H         -2.2364846962        2.2890780421        1.2438205188
 H          1.8498822132       -2.0539883756        1.3555973063
 H          4.2586073974       -1.6658272184        1.5297594664
 H          6.2384905887       -0.2841157774        1.0403581629
 H          7.2188975536        1.7462439671        0.0498368264
 H          5.7920883387        3.3605933213       -1.1413291192
 H          3.3693308347        2.9612475198       -1.3493808102
 H          1.3932784927        1.5521028665       -0.8889003896
 H          0.9478445348       -3.0519526998       -0.4290905884
 H         -0.6077638671       -4.9677803068       -0.6795848779
 H         -3.0556953907       -4.5987740046       -0.4928761302
 H         -3.9253148261       -2.3004508630       -0.1842863108
 H         -4.5137325797       -0.4149268647       -1.1434048865
 H         -6.4599577945        1.0659021960       -0.9742161670
  41
  -63.0205795516000       3.228916948617664E-002 !
 C         -5.4134935385        2.5916475632        0.1961676047
 C         -5.6452057529        1.2365801089        0.0354483511
 C         -4.5902226590        0.3452290334       -0.0302079297
 C         -3.2736332340        0.7942445182        0.0646613809
 C         -2.1101756741       -0.0740886086        0.0081289005
 N         -0.8784250735        0.4730933107        0.1268077264
 C          0.0150604233       -0.4894220940        0.0758155725
 C          1.4460334494       -0.2688331356        0.2044545827
 C          2.2624083820       -1.1449474584        0.9556050410
 C          3.6021113728       -0.9140235564        1.0726860269
 C          4.2058416500        0.2025381145        0.4565577617
 C          5.5888107397        0.4574846404        0.5512584931
 C          6.1373361536        1.5590520497       -0.0439773487
 C          5.3270046435        2.4562135980       -0.7582871263
 C          3.9828735836        2.2370070951       -0.8680360801
 C          3.3854161326        1.1073552864       -0.2683585226
 C          2.0077015947        0.8469029677       -0.3745203282
 N         -0.5922046307       -1.7011880828       -0.1009723887
 C         -0.0684076404       -2.9399917648       -0.3150255937
 C         -0.8912512260       -3.9992943962       -0.5031979435
 C         -2.2957121959       -3.8164837124       -0.4926560496
 C         -2.8209232622       -2.5691697035       -0.3289148252
 C         -1.9723452240       -1.4629299850       -0.1431668829
 C         -3.0542083908        2.1661571269        0.2275136756
 C         -4.1094379114        3.0517646731        0.2918953579
 H         -6.2420221718        3.2827119591        0.2469784687
 H         -6.6586272878        0.8684343620       -0.0400004795
 H         -4.8055878201       -0.7026969506       -0.1539109300
 H          1.8130667028       -1.9800990227        1.4739130493
 H          4.2212899146       -1.5836345078        1.6531498133
 H          6.2077858558       -0.2349369131        1.1042753421
 H          7.1980857878        1.7485429418        0.0316524991
 H          5.7780400916        3.3218361936       -1.2209553739
 H          3.3545346580        2.9234882966       -1.4169225511
 H          1.3762689286        1.5280599850       -0.9244114547
 H          1.0071135153       -3.0134980577       -0.3467831053
 H         -0.4757999878       -4.9794970397       -0.6701997375
 H         -2.9403503806       -4.6691526171       -0.6346402026
 H         -3.8870657379       -2.4228511334       -0.3490597408
 H         -2.0354994543        2.5110003822        0.3040595910
 H         -3.9179011665        4.1076017869        0.4188696901
  41
  -63.0204633357000       2.855273699109505E-002 !
 C         -5.3406361584        2.6553010900        0.1135619507
 C         -4.0256468707        3.0936764910        0.1141502003
 C         -2.9907316093        2.1829739231        0.0795652776
 C         -3.2421001792        0.8072870462        0.0442833176
 C         -2.0966811290       -0.0859879137        0.0190014032
 N         -0.8549264159        0.4449957605        0.0857255982
 C          0.0222221846       -0.5343473599        0.0864835628
 C          1.4544279636       -0.3084546412        0.1842039311
 C          2.2908219116       -1.1292139859        0.9739179168
 C          3.6248031298       -0.8600996512        1.0790064604
 C          4.2029625308        0.2394000607        0.4099253587
 C          5.5765102296        0.5417636639        0.5035231321
 C          6.0981759234        1.6252749468       -0.1467165557
 C          5.2707498806        2.4543476296       -0.9213341800
 C          3.9350138156        2.1892699641       -1.0303305243
 C          3.3644525351        1.0800826890       -0.3693758690
 C          1.9937952099        0.7829803621       -0.4597833742
 N         -0.6073599996       -1.7438405084       -0.0028738997
 C         -0.1090029609       -3.0041956690       -0.1378018997
 C         -0.9533162673       -4.0569030333       -0.2566550314
 C         -2.3538713801       -3.8464979358       -0.2581865362
 C         -2.8544362995       -2.5815634488       -0.1676478060
 C         -1.9841402828       -1.4837315299       -0.0471012038
 C         -4.5690819044        0.3799614986        0.0470961483
 C         -5.6037041776        1.2967991753        0.0800888463
 H         -6.1533256444        3.3661753557        0.1417355315
 H         -3.8094747868        4.1520300006        0.1426326565
 H         -1.9634590817        2.5105910956        0.0825836409
 H          1.8624289596       -1.9488467970        1.5330621529
 H          4.2589971077       -1.4850444811        1.6921857811
 H          6.2101534474       -0.0985595242        1.1009528193
 H          7.1513815323        1.8524519191       -0.0696685342
 H          5.7013875822        3.3048063629       -1.4293978038
 H          3.2920020722        2.8240784116       -1.6227137722
 H          1.3462392113        1.4216010679       -1.0409432310
 H          0.9646982489       -3.1012991819       -0.1675992480
 H         -0.5577223497       -5.0537250181       -0.3622985085
 H         -3.0152953739       -4.6929944243       -0.3509842472
 H         -3.9173800039       -2.4145157789       -0.1988945883
 H         -4.8077268670       -0.6702986411        0.0312267393
 H         -6.6259891082        0.9459176363        0.0832458836
