  41
  -63.2650016300000       0.144788278982783      !
 C         -5.8537163966        2.1184564291        0.3153312508
 C         -5.8180065642        0.8732199743       -0.2897707454
 C         -4.6235555421        0.1871065502       -0.4075446953
 C         -3.4433377682        0.7389102612        0.0879587683
 C         -2.1664374646        0.0537182619       -0.0121481801
 N         -1.0105070072        0.7459001865       -0.0743746606
 C         -0.0151002142       -0.1162890210       -0.1438090262
 C          1.3784093975        0.2852033481       -0.2088683329
 C          1.6849383686        1.4762340387       -0.9087214961
 C          2.9698747526        1.9191904157       -1.0009018952
 C          4.0288725690        1.2074486109       -0.3952659773
 C          5.3686246264        1.6356349976       -0.4771171675
 C          6.3662450391        0.9334307558        0.1406307013
 C          6.0677287399       -0.2289964813        0.8683725695
 C          4.7783749317       -0.6721197061        0.9635220059
 C          3.7266376625        0.0280894055        0.3348896055
 C          2.3900935384       -0.4080307959        0.4165650259
 N         -0.4875931032       -1.3999576697       -0.1378348078
 C          0.1368342794       -2.6019439087       -0.2858801823
 C         -0.5842275908       -3.7483782514       -0.2402587059
 C         -1.9862360096       -3.7072806083       -0.0344996435
 C         -2.6235207363       -2.5056658276        0.0514924243
 C         -1.8805660394       -1.3163438910       -0.0408891651
 C         -3.4857426343        2.0034390348        0.6767267548
 C         -4.6811083859        2.6843342014        0.7905643642
 H         -6.7898966007        2.6493271460        0.4075107330
 H         -6.7268542729        0.4368057253       -0.6790622359
 H         -4.6023940547       -0.7661636779       -0.9136049432
 H          0.8690971961        2.0176078455       -1.3613062771
 H          3.1985618983        2.8268574595       -1.5410033521
 H          5.5926042188        2.5326558481       -1.0368913750
 H          7.3909781856        1.2685648116        0.0748604379
 H          6.8671811031       -0.7703050180        1.3529472594
 H          4.5451693558       -1.5675220550        1.5228377403
 H          2.1765199015       -1.2798546122        1.0191761617
 H          1.2010636890       -2.5814769033       -0.4579862530
 H         -0.0865685726       -4.6971411851       -0.3577144171
 H         -2.5368384430       -4.6314074303        0.0383658637
 H         -3.6890738081       -2.4433129248        0.2000732709
 H         -2.5645747785        2.4318867845        1.0396138123
 H         -4.7022351896        3.6604921309        1.2533918676
  41
  -63.2649955700000       0.143862771525339      !
 C         -5.8443842966        2.1017948483       -0.4233646732
 C         -4.6766781172        2.6088443421       -0.9714143799
 C         -3.4851690646        1.9292278353       -0.8169609545
 C         -3.4411518393        0.7252367080       -0.1127285603
 C         -2.1658500266        0.0452825025        0.0330539607
 N         -1.0076203708        0.7347223102       -0.0065144155
 C         -0.0119564567       -0.1171053396        0.1441129683
 C          1.3801686139        0.2931074733        0.1370425517
 C          1.6810283410        1.5750327141        0.6569317620
 C          2.9614266769        2.0390126155        0.6712046198
 C          4.0228824693        1.2570305031        0.1642661309
 C          5.3584495683        1.7052143761        0.1711062902
 C          6.3592123953        0.9288749827       -0.3446601132
 C          6.0675988776       -0.3306233894       -0.8907154615
 C          4.7819933976       -0.7938981682       -0.9110722254
 C          3.7270974598       -0.0184484743       -0.3843249163
 C          2.3940906541       -0.4733969974       -0.3921102287
 N         -0.4870535646       -1.3910271596        0.2963219347
 C          0.1364455322       -2.5704327810        0.5739996613
 C         -0.5877233126       -3.7116255444        0.6726631533
 C         -1.9923756303       -3.6892393991        0.4841137966
 C         -2.6282643658       -2.5028211950        0.2703387970
 C         -1.8817257337       -1.3135995543        0.2141340423
 C         -4.6162874244        0.2338655259        0.4534492068
 C         -5.8071582749        0.9177486725        0.2939169022
 H         -6.7777939977        2.6314332838       -0.5463617089
 H         -4.6986246960        3.5382662407       -1.5218310005
 H         -2.5674514076        2.3133498047       -1.2342546255
 H          0.8630574296        2.1675368478        1.0362864579
 H          3.1850244454        3.0172307429        1.0732134748
 H          5.5768101257        2.6769285962        0.5908768911
 H          7.3807928475        1.2796556317       -0.3379012794
 H          6.8694743050       -0.9304073449       -1.2964736666
 H          4.5544065798       -1.7636907393       -1.3321818391
 H          2.1859652493       -1.4239719947       -0.8626417994
 H          1.2028596826       -2.5342730685        0.7281535318
 H         -0.0905645206       -4.6422937413        0.8927058720
 H         -2.5462039706       -4.6133450231        0.5262766766
 H         -3.6958614991       -2.4542614177        0.1315651441
 H         -4.5940359884       -0.6679347207        1.0462014488
 H         -6.7121026985        0.5274235391        0.7375552994
  41
  -63.2649515700000       0.137317985265370      !
 C         -5.8551034114        2.1163290259       -0.3193279436
 C         -5.7447499001        0.8305047512       -0.8216270392
 C         -4.5487526166        0.1436006914       -0.7287960375
 C         -3.4421570593        0.7347973242       -0.1212316210
 C         -2.1664487683        0.0520091890        0.0022441058
 N         -1.0123407163        0.7477909174        0.0632562152
 C         -0.0150000251       -0.1109893451        0.1405761855
 C          1.3790584132        0.2918424133        0.1758128495
 C          1.6962398311        1.4955230724        0.8488193880
 C          2.9828319277        1.9375806175        0.9176761534
 C          4.0334962512        1.2111507128        0.3150620283
 C          5.3754796728        1.6353105206        0.3781175235
 C          6.3654335991        0.9168677135       -0.2332460188
 C          6.0561097641       -0.2572452967       -0.9372502909
 C          4.7641978869       -0.6962477425       -1.0145696320
 C          3.7204619997        0.0193948654       -0.3900397070
 C          2.3819698701       -0.4144966455       -0.4491549699
 N         -0.4853864148       -1.3956139142        0.1699752030
 C          0.1438647497       -2.5882638502        0.3636823515
 C         -0.5795186039       -3.7324438497        0.4274051576
 C         -1.9921785438       -3.6956073442        0.3215156443
 C         -2.6302496705       -2.5009620940        0.1681565413
 C         -1.8794650261       -1.3162896160        0.0829985834
 C         -3.5574261829        2.0388145191        0.3622589620
 C         -4.7535157739        2.7208432824        0.2655071314
 H         -6.7924948722        2.6479770881       -0.3923340738
 H         -6.5958402553        0.3619972544       -1.2950196208
 H         -4.4657221026       -0.8433165169       -1.1582266224
 H          0.8874646710        2.0470007172        1.3013514028
 H          3.2197681551        2.8545724754        1.4377365444
 H          5.6076389842        2.5414008477        0.9194533365
 H          7.3921404075        1.2482776010       -0.1811578349
 H          6.8495803880       -0.8115164466       -1.4172454237
 H          4.5230189574       -1.6005160891       -1.5558940654
 H          2.1594256623       -1.2971286904       -1.0326934212
 H          1.2137901487       -2.5596358577        0.4937298322
 H         -0.0774038625       -4.6735871036        0.5815425006
 H         -2.5508709843       -4.6152271407        0.3892322960
 H         -3.7055589577       -2.4396644545        0.1355102306
 H         -2.6906474581        2.4984293217        0.8106389540
 H         -4.8307719646        3.7288367107        0.6466503076
  41
  -63.2649458600000       0.136490771476820      !
 C         -5.8591131617        2.1236595655        0.2160192429
 C         -4.7821613676        2.6591607343       -0.4727107348
 C         -3.5833514071        1.9769619831       -0.5252283351
 C         -3.4409620560        0.7418578961        0.1082286654
 C         -2.1647749657        0.0535994256        0.0252596114
 N         -1.0161587471        0.7402874645       -0.1453662719
 C         -0.0176170752       -0.1205049259       -0.1541177516
 C          1.3752133034        0.2751866924       -0.2548923855
 C          1.6862484635        1.3994034292       -1.0557285852
 C          2.9725405741        1.8301705365       -1.1824569631
 C          4.0283982845        1.1718287156       -0.5141528946
 C          5.3695433790        1.5875753170       -0.6297445798
 C          6.3639651159        0.9384415965        0.0486421205
 C          6.0606723140       -0.1549720998        0.8746446658
 C          4.7697988598       -0.5841142336        1.0058625080
 C          3.7216612168        0.0615715977        0.3159250121
 C          2.3839573044       -0.3625589747        0.4316720826
 N         -0.4830039064       -1.4012886916       -0.0294095001
 C          0.1456219824       -2.6069522140       -0.1134467573
 C         -0.5734974155       -3.7523569694       -0.0265700463
 C         -1.9819296131       -3.7061187570        0.1240286352
 C         -2.6211283099       -2.5027735206        0.1630317886
 C         -1.8740668024       -1.3147096573        0.0895348553
 C         -4.5221108715        0.2224666651        0.8186994390
 C         -5.7208441803        0.9090044050        0.8668557493
 H         -6.7985596383        2.6555323770        0.2548296187
 H         -4.8811972549        3.6128262390       -0.9712067072
 H         -2.7355270726        2.3837660136       -1.0537111954
 H          0.8736630826        1.9012299094       -1.5569598214
 H          3.2047442905        2.6871840267       -1.7981311327
 H          5.5975523133        2.4320668386       -1.2644278520
 H          7.3902189092        1.2627575289       -0.0454621284
 H          6.8575865852       -0.6544597688        1.4061215253
 H          4.5326124476       -1.4265382537        1.6403679824
 H          2.1663139294       -1.1777483089        1.1080288973
 H          1.2104508178       -2.5909311535       -0.2823531142
 H         -0.0718792356       -4.7039298007       -0.0938024238
 H         -2.5376030047       -4.6285475724        0.1794465879
 H         -3.6952673064       -2.4400199919        0.2238311573
 H         -4.4155887555       -0.7038501440        1.3616534445
 H         -6.5517523280        0.4971976433        1.4216251867
  41
  -63.2645964500000       9.430301339620520E-002 !
 C         -5.4552595543        2.5211193332        0.2307630580
 C         -4.2642133652        2.8696551287        0.8477857440
 C         -3.1712220056        2.0302411932        0.7709034913
 C         -3.2512547053        0.8220837939        0.0767913877
 C         -2.0759576145       -0.0290637954        0.0159350577
 N         -0.8376918387        0.4949966297        0.1344156314
 C          0.0362699056       -0.4881490330        0.0544839937
 C          1.4712658234       -0.2893909118        0.1642885852
 C          2.2941951045       -1.1981170661        0.8679563606
 C          3.6350227980       -0.9723529758        0.9830840757
 C          4.2339409053        0.1705230048        0.4122859016
 C          5.6160307015        0.4270062320        0.5156382706
 C          6.1591705172        1.5545526430       -0.0341817176
 C          5.3448180584        2.4756826743       -0.7126465636
 C          4.0014153511        2.2559700244       -0.8292980335
 C          3.4087519109        1.1022091336       -0.2721275501
 C          2.0302869195        0.8469068543       -0.3770209767
 N         -0.5985751448       -1.6853723938       -0.1265286216
 C         -0.1224524804       -2.9417241168       -0.3549879885
 C         -0.9868273771       -3.9750212219       -0.4997087637
 C         -2.3852269430       -3.7581750905       -0.4131115809
 C         -2.8671678563       -2.4941224153       -0.2475296516
 C         -1.9716173924       -1.4160483591       -0.1417483286
 C         -4.4466800819        0.4896518715       -0.5583542729
 C         -5.5387908251        1.3332002051       -0.4764741914
 H         -6.3118293516        3.1762133981        0.2926196157
 H         -4.1905917690        3.8008010275        1.3906674462
 H         -2.2364846962        2.2890780421        1.2438205188
 H          1.8498822132       -2.0539883756        1.3555973063
 H          4.2586073974       -1.6658272184        1.5297594664
 H          6.2384905887       -0.2841157774        1.0403581629
 H          7.2188975536        1.7462439671        0.0498368264
 H          5.7920883387        3.3605933213       -1.1413291193
 H          3.3693308347        2.9612475198       -1.3493808102
 H          1.3932784927        1.5521028665       -0.8889003896
 H          0.9478445348       -3.0519526998       -0.4290905884
 H         -0.6077638671       -4.9677803068       -0.6795848778
 H         -3.0556953907       -4.5987740046       -0.4928761301
 H         -3.9253148261       -2.3004508630       -0.1842863108
 H         -4.5137325797       -0.4149268647       -1.1434048865
 H         -6.4599577945        1.0659021960       -0.9742161670
  41
  -63.2645919400000       9.385402838991262E-002 !
 C         -5.4454446714        2.5195178723        0.1855473092
 C         -5.5302446215        1.3179896501       -0.4979681891
 C         -4.4402284812        0.4700539623       -0.5598034440
 C         -3.2456729739        0.8119718836        0.0717595609
 C         -2.0715803865       -0.0417370436        0.0266129896
 N         -0.8329546164        0.4829689231        0.1323413491
 C          0.0407846683       -0.5017505951        0.0638195466
 C          1.4749296050       -0.2955319570        0.1640929063
 C          2.3149422443       -1.2051340973        0.8462285652
 C          3.6553927675       -0.9693791451        0.9457799880
 C          4.2370303919        0.1864490734        0.3832496845
 C          5.6182232677        0.4532128203        0.4705329925
 C          6.1435572407        1.5946021278       -0.0682010576
 C          5.3113005387        2.5205301802       -0.7177705408
 C          3.9683930115        2.2905018074       -0.8192612858
 C          3.3942202336        1.1214613413       -0.2745881524
 C          2.0174721332        0.8539613075       -0.3672336325
 N         -0.5956376417       -1.7011150630       -0.0984002669
 C         -0.1235290131       -2.9611163393       -0.3155206250
 C         -0.9902666431       -3.9952706292       -0.4387754230
 C         -2.3875811203       -3.7762952290       -0.3420550831
 C         -2.8664711683       -2.5091364430       -0.1923768922
 C         -1.9685960555       -1.4309952452       -0.1102805957
 C         -3.1642321704        2.0332643448        0.7422999791
 C         -4.2552822245        2.8769325120        0.7996829954
 H         -6.3002342767        3.1782171365        0.2312493569
 H         -6.4507509110        1.0433294113       -0.9928016036
 H         -4.5078632559       -0.4456220009       -1.1270659663
 H          1.8856213200       -2.0707062525        1.3299304584
 H          4.2920172948       -1.6644448558        1.4756716238
 H          6.2545194223       -0.2609027256        0.9744388933
 H          7.2028420072        1.7938354139        0.0029692528
 H          5.7443272574        3.4173498893       -1.1362329180
 H          3.3225276671        2.9988728826       -1.3177525127
 H          1.3672725951        1.5600277319       -0.8606731841
 H          0.9454831835       -3.0745354000       -0.3997384959
 H         -0.6135952536       -4.9905920721       -0.6092688334
 H         -3.0594658282       -4.6173518867       -0.4030955855
 H         -3.9238036494       -2.3122564000       -0.1242234022
 H         -2.2298182807        2.2993103029        1.2110106381
 H         -4.1807248561        3.8184653988        1.3243110631
  41
  -63.2645577500000       9.051911140770048E-002 !
 C         -5.4865103951        2.5027015529       -0.0107675959
 C         -4.2643907717        2.9486407622       -0.4887158647
 C         -3.1628693765        2.1174599129       -0.4605481676
 C         -3.2641441997        0.8202020450        0.0443022926
 C         -2.0814625447       -0.0221456044        0.0535687663
 N         -0.8458310016        0.5207465117        0.0843991961
 C          0.0344116112       -0.4590149259        0.1206405518
 C          1.4687326473       -0.2465595391        0.2106600292
 C          2.2879781376       -1.0648655046        1.0216745475
 C          3.6310267172       -0.8380074319        1.1023216765
 C          4.2364498568        0.2174516198        0.3880120866
 C          5.6220728416        0.4683831062        0.4467785196
 C          6.1721037595        1.5110928004       -0.2453315690
 C          5.3607899770        2.3503096342       -1.0259063397
 C          4.0139586428        2.1336932013       -1.1026105535
 C          3.4146184907        1.0647243496       -0.4019610674
 C          2.0336078786        0.8098627913       -0.4684805729
 N         -0.5922645684       -1.6740515495        0.0782764243
 C         -0.1039437681       -2.9417072846       -0.0264009338
 C         -0.9580174645       -3.9888409458       -0.1279426569
 C         -2.3582371300       -3.7721796789       -0.1579874609
 C         -2.8507476931       -2.5027509334       -0.0947660466
 C         -1.9668890218       -1.4176426261        0.0325933375
 C         -4.4916194003        0.3892464525        0.5452558730
 C         -5.5923214476        1.2247392930        0.5119748617
 H         -6.3501545847        3.1508864723       -0.0364143751
 H         -4.1735335083        3.9495572441       -0.8853526720
 H         -2.2044466142        2.4523909613       -0.8246485559
 H          1.8389588580       -1.8484682401        1.6151107545
 H          4.2518466509       -1.4625435782        1.7294327455
 H          6.2420590035       -0.1793532840        1.0504823935
 H          7.2348612749        1.6980057072       -0.1964078982
 H          5.8130759632        3.1697216110       -1.5652820165
 H          3.3846499049        2.7764386318       -1.7011248574
 H          1.4008183972        1.4499268705       -1.0640867385
 H          0.9685459913       -3.0509189392       -0.0530586376
 H         -0.5679926119       -4.9903772406       -0.2084004987
 H         -3.0210348299       -4.6169560376       -0.2559484372
 H         -3.9081562385       -2.3084595952       -0.1656137473
 H         -4.5794834502       -0.5900688628        0.9902420431
 H         -6.5387401244        0.8788939267        0.9028973088
  41
  -63.2645546900000       9.022647766649428E-002 !
 C         -5.4948971018        2.4786447104        0.2344891640
 C         -5.5980157013        1.1498544586        0.6110879149
 C         -4.4935375611        0.3202336548        0.5584779423
 C         -3.2649729875        0.8099805589        0.1181454260
 C         -2.0799799305       -0.0255562787        0.0372354097
 N         -0.8454310523        0.5072357177        0.1542704276
 C          0.0350420771       -0.4698356561        0.0703099360
 C          1.4680598431       -0.2723078534        0.2014909490
 C          2.2840457717       -1.1997944146        0.8890600395
 C          3.6273604286       -0.9898749001        1.0038446280
 C          4.2363028469        0.1561733502        0.4501794513
 C          5.6229062699        0.3907175456        0.5428486776
 C          6.1760956137        1.5216069456        0.0101749475
 C          5.3668775000        2.4698857207       -0.6363003622
 C          4.0192735249        2.2714876499       -0.7422482026
 C          3.4169562536        1.1122928854       -0.2070703263
 C          2.0359216054        0.8719050084       -0.3134404020
 N         -0.5906948107       -1.6677805743       -0.1412585914
 C         -0.1021041179       -2.9104265799       -0.4127618801
 C         -0.9555519889       -3.9327112455       -0.6633143889
 C         -2.3555114721       -3.7124459026       -0.6759240914
 C         -2.8481384709       -2.4623717402       -0.4466885421
 C         -1.9647195285       -1.4059505388       -0.1669707013
 C         -3.1663999258        2.1557728923       -0.2379085765
 C         -4.2720077880        2.9801582849       -0.1819673561
 H         -6.3617068544        3.1218723158        0.2742466542
 H         -6.5460118016        0.7580099474        0.9532924188
 H         -4.5792853137       -0.7037430839        0.8894764101
 H          1.8326799437       -2.0594836249        1.3633212640
 H          4.2457751028       -1.7000526943        1.5349051875
 H          6.2411862728       -0.3411546993        1.0434279502
 H          7.2397179012        1.6950407352        0.0834249226
 H          5.8213995125        3.3586028202       -1.0489693652
 H          3.3915699734        2.9977992018       -1.2380490124
 H          1.4051204108        1.5930623644       -0.8102389768
 H          0.9704034275       -3.0170943896       -0.4456290105
 H         -0.5647766639       -4.9143114109       -0.8762950567
 H         -3.0173323357       -4.5354003645       -0.8930148941
 H         -3.9046681591       -2.2576711227       -0.4997860059
 H         -2.2071682381        2.5334600282       -0.5553792615
 H         -4.1840281696        4.0188225340       -0.4649600649
  41
  -63.2636757300000       3.559524245783501E-002 !
 C         -5.4134935385        2.5916475632        0.1961676047
 C         -5.6452057529        1.2365801089        0.0354483511
 C         -4.5902226590        0.3452290334       -0.0302079297
 C         -3.2736332340        0.7942445182        0.0646613809
 C         -2.1101756741       -0.0740886086        0.0081289005
 N         -0.8784250735        0.4730933107        0.1268077264
 C          0.0150604233       -0.4894220940        0.0758155725
 C          1.4460334494       -0.2688331356        0.2044545827
 C          2.2624083820       -1.1449474584        0.9556050410
 C          3.6021113728       -0.9140235564        1.0726860269
 C          4.2058416500        0.2025381145        0.4565577617
 C          5.5888107397        0.4574846404        0.5512584931
 C          6.1373361536        1.5590520497       -0.0439773487
 C          5.3270046435        2.4562135980       -0.7582871263
 C          3.9828735836        2.2370070951       -0.8680360801
 C          3.3854161326        1.1073552864       -0.2683585226
 C          2.0077015947        0.8469029677       -0.3745203282
 N         -0.5922046307       -1.7011880828       -0.1009723887
 C         -0.0684076404       -2.9399917648       -0.3150255937
 C         -0.8912512260       -3.9992943962       -0.5031979435
 C         -2.2957121959       -3.8164837124       -0.4926560496
 C         -2.8209232622       -2.5691697035       -0.3289148252
 C         -1.9723452240       -1.4629299850       -0.1431668829
 C         -3.0542083908        2.1661571269        0.2275136756
 C         -4.1094379114        3.0517646731        0.2918953579
 H         -6.2420221718        3.2827119591        0.2469784687
 H         -6.6586272878        0.8684343620       -0.0400004795
 H         -4.8055878201       -0.7026969506       -0.1539109300
 H          1.8130667028       -1.9800990227        1.4739130493
 H          4.2212899146       -1.5836345078        1.6531498133
 H          6.2077858558       -0.2349369131        1.1042753421
 H          7.1980857878        1.7485429418        0.0316524991
 H          5.7780400916        3.3218361936       -1.2209553740
 H          3.3545346580        2.9234882966       -1.4169225511
 H          1.3762689286        1.5280599850       -0.9244114547
 H          1.0071135153       -3.0134980577       -0.3467831053
 H         -0.4757999878       -4.9794970397       -0.6701997375
 H         -2.9403503806       -4.6691526171       -0.6346402026
 H         -3.8870657379       -2.4228511334       -0.3490597408
 H         -2.0354994543        2.5110003822        0.3040595910
 H         -3.9179011665        4.1076017869        0.4188696901
  41
  -63.2636054000000       3.304231943154094E-002 !
 C         -5.3406361584        2.6553010900        0.1135619507
 C         -4.0256468707        3.0936764910        0.1141502003
 C         -2.9907316093        2.1829739231        0.0795652776
 C         -3.2421001792        0.8072870462        0.0442833176
 C         -2.0966811290       -0.0859879137        0.0190014032
 N         -0.8549264159        0.4449957605        0.0857255982
 C          0.0222221846       -0.5343473599        0.0864835628
 C          1.4544279636       -0.3084546412        0.1842039311
 C          2.2908219116       -1.1292139859        0.9739179168
 C          3.6248031298       -0.8600996512        1.0790064604
 C          4.2029625308        0.2394000607        0.4099253587
 C          5.5765102296        0.5417636639        0.5035231321
 C          6.0981759234        1.6252749468       -0.1467165557
 C          5.2707498806        2.4543476296       -0.9213341800
 C          3.9350138156        2.1892699641       -1.0303305243
 C          3.3644525351        1.0800826890       -0.3693758690
 C          1.9937952099        0.7829803621       -0.4597833742
 N         -0.6073599996       -1.7438405084       -0.0028738997
 C         -0.1090029609       -3.0041956690       -0.1378018997
 C         -0.9533162673       -4.0569030333       -0.2566550314
 C         -2.3538713801       -3.8464979358       -0.2581865362
 C         -2.8544362995       -2.5815634488       -0.1676478060
 C         -1.9841402828       -1.4837315299       -0.0471012038
 C         -4.5690819044        0.3799614986        0.0470961483
 C         -5.6037041776        1.2967991753        0.0800888463
 H         -6.1533256444        3.3661753557        0.1417355315
 H         -3.8094747868        4.1520300006        0.1426326564
 H         -1.9634590817        2.5105910956        0.0825836409
 H          1.8624289596       -1.9488467970        1.5330621529
 H          4.2589971077       -1.4850444811        1.6921857811
 H          6.2101534474       -0.0985595242        1.1009528193
 H          7.1513815323        1.8524519191       -0.0696685342
 H          5.7013875822        3.3048063629       -1.4293978039
 H          3.2920020722        2.8240784116       -1.6227137722
 H          1.3462392113        1.4216010679       -1.0409432310
 H          0.9646982489       -3.1012991819       -0.1675992480
 H         -0.5577223497       -5.0537250181       -0.3622985084
 H         -3.0152953739       -4.6929944243       -0.3509842471
 H         -3.9173800039       -2.4145157789       -0.1988945883
 H         -4.8077268670       -0.6702986411        0.0312267393
 H         -6.6259891082        0.9459176363        0.0832458836
