73
 energy: -119.460903805114 gnorm: 0.000080532404 xtb: 6.7.1 (edcfbbe)
O            5.02637814917721        1.35542544111145        1.20198625356279
C            5.25253503769752        0.30558602006455        0.60924616446481
C            6.60427260686956       -0.22957755347432        0.41417884672220
C            7.72059452428963        0.45245074613114        0.91195385093681
C            8.98904745757190       -0.04713891581885        0.73128153321440
C            9.17028685185179       -1.24634204078971        0.04521999442663
C            8.08870800185741       -1.93726879643318       -0.45515055420340
C            6.79918996740140       -1.43365586261077       -0.27474768182259
O            5.77849400925019       -2.15940361910058       -0.79072511826634
C            4.50985478338405       -1.71580349031832       -0.64001470378399
C            3.48942971468163       -2.49710821516521       -1.18676508980550
C            2.17837070704350       -2.10127479844997       -1.06466493979646
C            1.83585562983659       -0.91573703171050       -0.39909164310607
C            0.42959874496583       -0.50246504010133       -0.27260741522830
C           -0.56571789748754       -1.44882360238336       -0.04843864094055
C           -1.89496758755389       -1.05771549030232        0.07056740796556
N           -2.89010726218987       -2.01970881061361        0.29043662416787
C           -3.07002209690753       -3.17198135683405       -0.45040898384142
C           -2.38707057644592       -3.61513088643201       -1.57424314989246
C           -2.79142490184412       -4.80535376470493       -2.14853620642169
C           -3.85586123523773       -5.53882997426677       -1.62798727615551
C           -4.55611586346448       -5.08945844713295       -0.52583539380852
C           -4.16845784493265       -3.89510511859092        0.06848140510476
C           -4.66869264022367       -3.13483767241099        1.18036306546432
C           -5.70663148022748       -3.33196797447705        2.08232670264868
C           -5.91328676388062       -2.38936077514280        3.06998538645967
C           -5.09056531067399       -1.26959930852113        3.17463725580158
C           -4.05107505157061       -1.05222704980941        2.29009185345125
C           -3.85410135035215       -1.98311666529571        1.27983383997878
C           -2.23712009271017        0.28676990203300       -0.01850184572067
C           -1.24531133931709        1.23698561101580       -0.23675623461889
N           -1.58590081116978        2.59279409067587       -0.32801419780868
C           -2.58670829583216        3.12876482008759       -1.11651091686636
C           -3.43688672806692        2.50195101119165       -2.01679105838786
C           -4.34051952280064        3.28777710984803       -2.70695121864285
C           -4.39818314670411        4.66708517706842       -2.51869954507446
C           -3.53909891236348        5.29976793204750       -1.64204721791971
C           -2.62231415410868        4.53087004843514       -0.93631924700746
C           -1.59269868828936        4.84756099084153        0.01456995437757
C           -1.15991401460818        6.03305033000122        0.59522830093864
C           -0.12844289921480        5.98356788995107        1.51200824380829
C            0.45770317812753        4.76982101984746        1.86567618550016
C            0.04201606412812        3.57758579704652        1.30380733172023
C           -0.97527587369060        3.62385366815699        0.36109905183530
C            0.08101190131620        0.84126828730299       -0.37067828711800
C            2.85297564878100       -0.14566111738858        0.13678172230395
C            4.19177593143595       -0.52781170032647        0.02936868986632
H            7.54480216240286        1.37873558829890        1.43889960079254
H            9.84249710283727        0.48691262546498        1.11920886157818
H           10.16544661940263       -1.63929445877859       -0.09627939574312
H            8.20891049049362       -2.86699148702254       -0.98863503373129
H            3.75596402301231       -3.40599089432187       -1.70277881513253
H            1.40213028750430       -2.70731032797384       -1.50521583079731
H           -0.30928677167153       -2.48988518896441        0.07035088798031
H           -1.57608720669511       -3.04200902835255       -1.99734551131995
H           -2.27428318149273       -5.17324733131905       -3.02285767934632
H           -4.14074249330225       -6.46619849029704       -2.10302718889139
H           -5.39188605011423       -5.64953148616487       -0.13373705236649
H           -6.33443859709581       -4.20765240017801        2.01127362862910
H           -6.71742848589062       -2.52165190626527        3.77900861823026
H           -5.26673883399723       -0.55672197948438        3.96707050025918
H           -3.41006433851994       -0.18953121682267        2.39258648143319
H           -3.26693202000016        0.59184343501578        0.08261669839684
H           -3.39098789646425        1.43670023370930       -2.18560399296015
H           -5.01502699616619        2.82176127419228       -3.41055084089583
H           -5.12021829156240        5.24649126645412       -3.07516752081419
H           -3.57261516274410        6.37075387091792       -1.50842772845498
H           -1.62545388828275        6.97181580071373        0.33445112496748
H            0.22626134717032        6.89466758036830        1.97125766212923
H            1.25408925771544        4.75873467412234        2.59570784237567
H            0.49072625361923        2.64187221578307        1.60099529659434
H            0.83605204800571        1.58219877621721       -0.58224339400233
H            2.64490013699202        0.76798248656192        0.67333894749874
