73
 energy: -119.460490886630 gnorm: 0.000046481476 xtb: 6.7.1 (edcfbbe)
O            4.94805893961435        1.60085060586788        1.85465041430160
C            5.30071688550908        0.58990722473277        1.25614891525073
C            6.69386954167416        0.13338842367615        1.20620482952155
C            7.70218991717585        0.84591031147548        1.86552173245271
C            9.00874205130729        0.41885234225932        1.82346090917465
C            9.33777621128963       -0.73644883761610        1.11724165231099
C            8.36477947048917       -1.45549608835821        0.45851406780501
C            7.03704305797545       -1.02592517661009        0.49868537195181
O            6.12775038476268       -1.77641855044019       -0.16830606777298
C            4.82643278421741       -1.40868081234049       -0.15046909622688
C            3.92352456668274       -2.21756146779801       -0.84406956417899
C            2.58531401820036       -1.90195009198457       -0.85623358373449
C            2.09880856721651       -0.77132733859573       -0.18470775814827
C            0.66299593209877       -0.44968245987370       -0.19736706268352
C           -0.28556214599384       -1.46425267886842       -0.11358639672861
C           -1.64301134757397       -1.16197136781322       -0.11241173107553
N           -2.58467976700544       -2.19932452512403       -0.05345014183024
C           -2.61045656282921       -3.30345767388777       -0.88401692617818
C           -1.79070612595744       -3.62002458625942       -1.95799524745424
C           -2.05239855675255       -4.78821343371572       -2.64837609883870
C           -3.10883709761869       -5.62329380722271       -2.28983832915238
C           -3.94363277774452       -5.30059894788041       -1.23826627652934
C           -3.70079321628741       -4.13066652879004       -0.52944690145373
C           -4.35914688052818       -3.48721939430509        0.57369170674493
C           -5.46249663596759       -3.81416502137157        1.35184564323219
C           -5.82814652253634       -2.96158108608427        2.37478541663311
C           -5.09907542744402       -1.80335594912429        2.63697345880364
C           -3.99721479823289       -1.45903689248852        1.87764995807206
C           -3.64006284511202       -2.29727620476603        0.83178088563008
C           -2.06381554669383        0.16055355615194       -0.19465785712357
C           -1.11909395596639        1.17854926910711       -0.27444347169940
N           -1.53427424875855        2.51330593067860       -0.38264089477081
C           -1.11462540201214        3.41101050235210       -1.34637896443067
C           -0.24907455130870        3.22245825985609       -2.41463656543342
C           -0.01811329213347        4.29449146519719       -3.25582778186860
C           -0.63610553351892        5.52656994481610       -3.05150462161009
C           -1.51575064003541        5.71367958245134       -2.00374491899023
C           -1.76380616524677        4.65077246439329       -1.14439478422828
C           -2.61003093584950        4.48681203688410        0.00490915733165
C           -3.46509700300294        5.33902081240895        0.69216466896084
C           -4.12843754281702        4.85756214575350        1.80354307618231
C           -3.93537240027732        3.54893112137442        2.24133702785494
C           -3.08956863167127        2.68392249081488        1.57383674805417
C           -2.44003935877893        3.15276012799327        0.44130949568821
C            0.23741290764522        0.87316594358698       -0.27230123176314
C            3.00066838495094        0.02934356439075        0.49384751716273
C            4.36392304904387       -0.27207746182454        0.52417827404031
H            7.41284924514021        1.73654678296559        2.40371396380444
H            9.77801091681534        0.97563743482432        2.33561698508115
H           10.36294358196886       -1.07236576687970        1.08434099866091
H            8.60003855630816       -2.35170367892222       -0.09373337249444
H            4.30076225292709       -3.08477992722265       -1.36271638111167
H            1.90155286005348       -2.52908450322481       -1.40689142478979
H            0.02506547686468       -2.49258679078753       -0.01438245152634
H           -0.98392625392564       -2.96766880914014       -2.25594650335792
H           -1.42747009770782       -5.05813957749314       -3.48723475511070
H           -3.27979585948838       -6.52969947616026       -2.85199298212049
H           -4.77240262511159       -5.93952514740944       -0.97201898820268
H           -6.01837832483771       -4.71977765144892        1.15973681184635
H           -6.68534278130053       -3.19631241119668        2.98869136035666
H           -5.39928990429653       -1.16258857529891        3.45339222585046
H           -3.42637639379053       -0.57127223134838        2.10134710183858
H           -3.11690827258981        0.39417121070379       -0.22768129962014
H            0.22386524278678        2.26840330004531       -2.59215778615367
H            0.65541550297343        4.17343702963936       -4.09181133061348
H           -0.42746959346814        6.34120827052160       -3.72949019803954
H           -2.00576666674801        6.66408835145260       -1.85349830100419
H           -3.60135158375263        6.35851681294539        0.36344106922746
H           -4.79931161319195        5.50387525337165        2.35038258547405
H           -4.45424109690865        3.20425288623859        3.12399837520036
H           -2.92965224208188        1.67955203366046        1.93388476633567
H            0.95965602347479        1.67212307744237       -0.33398091466919
H            2.67694789566555        0.90187735963235        1.04177979187628
