  73
       -119.41193775
 O          4.9966907009        1.3688308116        1.1917048836
 C          5.2283131175        0.3242803184        0.6044696057
 C          6.5830153651       -0.2102745023        0.4065890923
 C          7.6959857561        0.4774694660        0.9004803974
 C          8.9667953678       -0.0165148627        0.7194471478
 C          9.1521783287       -1.2156046369        0.0359843141
 C          8.0724851151       -1.9124219601       -0.4603273505
 C          6.7814216958       -1.4150846443       -0.2782453376
 O          5.7636706351       -2.1500792740       -0.7896999728
 C          4.4940241680       -1.7106921639       -0.6377567645
 C          3.4757037726       -2.4993881350       -1.1770657505
 C          2.1630279659       -2.1092246173       -1.0530642951
 C          1.8185984344       -0.9209681542       -0.3957793833
 C          0.4138974129       -0.5085446582       -0.2680879101
 C         -0.5824824075       -1.4527491034       -0.0444022839
 C         -1.9112155404       -1.0596890007        0.0727988047
 N         -2.9039851814       -2.0222727029        0.2853187462
 C         -3.0547528495       -3.1893795929       -0.4375487798
 C         -2.3443512038       -3.6457570995       -1.5385989317
 C         -2.7232655564       -4.8512980841       -2.0975345320
 C         -3.7892292667       -5.5872114555       -1.5850622078
 C         -4.5178382285       -5.1247228326       -0.5075003379
 C         -4.1557588949       -3.9154175032        0.0710400248
 C         -4.6872512914       -3.1416108122        1.1581300590
 C         -5.7396106134       -3.3370646258        2.0427484412
 C         -5.9748251132       -2.3823892947        3.0117502021
 C         -5.1661511571       -1.2528265715        3.1149759860
 C         -4.1132178228       -1.0364632004        2.2465106101
 C         -3.8876573090       -1.9796100010        1.2542400241
 C         -2.2513556688        0.2853143386       -0.0139788236
 C         -1.2569306671        1.2335354409       -0.2282298423
 N         -1.5873832285        2.5891970701       -0.3141542197
 C         -2.5933032353        3.1359383073       -1.0867336587
 C         -3.4687286727        2.5182260500       -1.9682897308
 C         -4.3711251181        3.3150248124       -2.6470134985
 C         -4.4026119273        4.6957422209       -2.4661796321
 C         -3.5172906997        5.3192176262       -1.6098040855
 C         -2.6014142206        4.5394931348       -0.9162385588
 C         -1.5477665471        4.8451780527        0.0108975767
 C         -1.0836297040        6.0271271718        0.5731813617
 C         -0.0360727321        5.9660578667        1.4703436817
 C          0.5353661793        4.7452485720        1.8222315387
 C          0.0895464382        3.5564323203        1.2771358926
 C         -0.9443084622        3.6140529694        0.3536174681
 C          0.0682772025        0.8351751486       -0.3645169543
 C          2.8340489996       -0.1432052718        0.1323506518
 C          4.1720397480       -0.5210038999        0.0247714867
 H          7.5165004527        1.4038113646        1.4249529690
 H          9.8187975210        0.5219943992        1.1045210023
 H         10.1488343045       -1.6044836522       -0.1074737694
 H          8.1960284259       -2.8428222650       -0.9919959658
 H          3.7440329657       -3.4101073188       -1.6889103303
 H          1.3872160770       -2.7208936776       -1.4881179831
 H         -0.3275604736       -2.4936026839        0.0769670226
 H         -1.5316619931       -3.0715056626       -1.9577279813
 H         -2.1836344289       -5.2290009087       -2.9534410038
 H         -4.0521384546       -6.5265880861       -2.0476545635
 H         -5.3557317066       -5.6854278117       -0.1219600213
 H         -6.3549068898       -4.2212332916        1.9728137955
 H         -6.7895507851       -2.5132615439        3.7079668527
 H         -5.3636600897       -0.5308282530        3.8933940170
 H         -3.4813625930       -0.1673810129        2.3498683290
 H         -3.2803335275        0.5914653557        0.0853128583
 H         -3.4413562835        1.4517156761       -2.1329316630
 H         -5.0644231331        2.8563492665       -3.3363446486
 H         -5.1245314118        5.2831900143       -3.0134172724
 H         -3.5290304960        6.3910450928       -1.4824606362
 H         -1.5382589720        6.9711234976        0.3134470391
 H          0.3431293279        6.8735024960        1.9157182127
 H          1.3438898886        4.7256525878        2.5376731605
 H          0.5267094723        2.6153909065        1.5733665322
 H          0.8238515363        1.5740359326       -0.5771953372
 H          2.6227898816        0.7726443538        0.6622205338
