  45
  -91.0742972189000       0.241307286747850      !
 C          0.2735618223        3.2257883252       -1.6860573531
 C         -0.4911347270        2.5783752191       -0.5883193473
 S         -2.0925721497        3.1656071980       -0.2531760446
 C         -2.3326050803        1.9626372856        0.9802357469
 C         -3.4636713602        1.7850809017        1.7617041756
 C         -3.4522636281        0.7818784305        2.7084118061
 C         -2.3175657635       -0.0056126113        2.8952438153
 C         -1.1926182626        0.1767262872        2.1217620575
 C         -1.1977734359        1.1493301433        1.1222986980
 C         -0.1563734476        1.5086594290        0.1921444941
 C          1.0471256038        0.6988775735        0.0773011100
 C          1.0683218383       -0.6522236660       -0.0233203768
 C         -0.0882545508       -1.5069255855       -0.2103166123
 C         -0.3517779513       -2.6494796304        0.4975087077
 C          0.4885596067       -3.3441389311        1.5068163128
 S         -1.9335764938       -3.2801355530        0.1702459295
 C         -2.2558450117       -2.0206489305       -0.9861452849
 C         -3.4078195959       -1.8593031743       -1.7399930539
 C         -3.4511050049       -0.8255891730       -2.6523306551
 C         -2.3448001798        0.0009898361       -2.8395214088
 C         -1.2010653440       -0.1625485433       -2.0894384714
 C         -1.1582559568       -1.1543951233       -1.1095998723
 C          2.4834381465       -1.1696724890        0.0591236546
 F          2.7340675881       -2.2283514896       -0.7404318500
 F          2.8386106528       -1.5664578586        1.3133786217
 C          3.3226323637        0.0807956859       -0.3157367975
 F          4.5818401631        0.0606885997        0.1479655165
 F          3.4011061938        0.1888906417       -1.6643333021
 C          2.4485045754        1.2391648699        0.2338849839
 F          2.7473350117        1.4595544270        1.5456297590
 F          2.7110558909        2.4078137168       -0.3867742217
 H          0.8509982042        4.0667335568       -1.3003374260
 H         -0.4095541319        3.6058485326       -2.4428895674
 H          0.9697079951        2.5296967330       -2.1488073628
 H         -4.3235062284        2.4223973966        1.6279347694
 H         -4.3235404863        0.6169188174        3.3232373727
 H         -2.3190533598       -0.7650592441        3.6623419255
 H         -0.3045287600       -0.4103499421        2.2938243579
 H          1.3786563618       -3.7642339378        1.0375537148
 H         -0.0725547405       -4.1541610013        1.9665066790
 H          0.8186186550       -2.6586330739        2.2867896582
 H         -4.2392772765       -2.5350838685       -1.6158462029
 H         -4.3390875708       -0.6726230784       -3.2458210607
 H         -2.3819799291        0.7748935386       -3.5911254177
 H         -0.3323582039        0.4483558563       -2.2707925887
  45
  -91.0742880798000       0.238984864524181      !
 C          0.2812924919        3.2271060482       -1.6781756553
 C         -0.4873914938        2.5784322639       -0.5840180643
 S         -2.0920605405        3.1610644277       -0.2572671535
 C         -2.3357599187        1.9565814484        0.9742066015
 C         -3.4713368848        1.7738204217        1.7478250398
 C         -3.4623857255        0.7694916620        2.6933221118
 C         -2.3255815355       -0.0132718970        2.8875986849
 C         -1.1960341478        0.1746106784        2.1221615629
 C         -1.1989822182        1.1472465286        1.1227909531
 C         -0.1536479873        1.5095700675        0.1982136346
 C          1.0499299426        0.7000322235        0.0840477405
 C          1.0700110930       -0.6507435459       -0.0194977011
 C         -0.0883561762       -1.5040259388       -0.2036841850
 C         -0.3557361023       -2.6412659016        0.5106736316
 C          0.4815304854       -3.3293079425        1.5270010558
 S         -1.9385021647       -3.2701660422        0.1840177292
 C         -2.2558660863       -2.0164006963       -0.9800175329
 C         -3.4062896542       -1.8557120183       -1.7363968636
 C         -3.4463684015       -0.8249550904       -2.6521110163
 C         -2.3386997006       -0.0003413702       -2.8398980949
 C         -1.1961342755       -0.1636580579       -2.0880431311
 C         -1.1562525720       -1.1530799173       -1.1057444704
 C          2.4848146465       -1.1696920900        0.0523541803
 F          2.7285023470       -2.2258947875       -0.7526284560
 F          2.8486273183       -1.5719946031        1.3026390538
 C          3.3219141306        0.0815249130       -0.3246602561
 F          4.5853420374        0.0595994334        0.1272469073
 F          3.3880178307        0.1948550479       -1.6736253505
 C          2.4526867106        1.2377343907        0.2372452104
 F          2.7585128276        1.4472254541        1.5492006530
 F          2.7142228564        2.4108318809       -0.3753185244
 H          0.8664319055        4.0605347106       -1.2879127473
 H         -0.3994437329        3.6175723718       -2.4317697653
 H          0.9712114270        2.5283224285       -2.1463575929
 H         -4.3330216731        2.4076019632        1.6093035120
 H         -4.3372249709        0.5997216538        3.3016811501
 H         -2.3292688766       -0.7730015914        3.6543327902
 H         -0.3062953796       -0.4078076813        2.3007083089
 H         -0.0830546562       -4.1314120893        1.9959896777
 H          0.8148111055       -2.6367868327        2.2994347971
 H          1.3696431055       -3.7587961994        1.0627388496
 H         -4.2390512375       -2.5296986254       -1.6111479419
 H         -4.3332320464       -0.6721490070       -3.2473535424
 H         -2.3736004079        0.7722271594       -3.5929458220
 H         -0.3263940360        0.4458933088       -2.2693157895
  45
  -91.0741794825000       0.213040676916927      !
 C          0.2802154222        3.2226517617       -1.6906880058
 C         -0.4878406372        2.5739904120       -0.5960652691
 S         -2.0941395844        3.1539355186       -0.2720225598
 C         -2.3374613145        1.9496985394        0.9595822946
 C         -3.4741373933        1.7650197314        1.7312590923
 C         -3.4647748209        0.7614264927        2.6774884803
 C         -2.3265547324       -0.0185764371        2.8745850074
 C         -1.1962329616        0.1707505396        2.1107684581
 C         -1.1994244261        1.1427502956        1.1105841647
 C         -0.1534693614        1.5060034851        0.1870448777
 C          1.0513115846        0.6977472887        0.0759170251
 C          1.0741061401       -0.6535491486       -0.0253278321
 C         -0.0828037064       -1.5079433274       -0.2109120223
 C         -0.3456232827       -2.6512457331        0.4962298913
 C          0.4996511280       -3.3530040114        1.4965158976
 S         -1.9342165496       -3.2718517027        0.1830004262
 C         -2.2614616965       -2.0068519319       -0.9659343912
 C         -3.4219411641       -1.8333783615       -1.7038642937
 C         -3.4688623698       -0.7958114616       -2.6115783216
 C         -2.3573170636        0.0203535368       -2.8126181374
 C         -1.2051315137       -0.1554096304       -2.0784512839
 C         -1.1591644018       -1.1483785849       -1.0999173698
 C          2.4894083655       -1.1692288725        0.0598779644
 F          2.7430896146       -2.2273699862       -0.7395139170
 F          2.8426761436       -1.5662665902        1.3148825519
 C          3.3281008185        0.0821981287       -0.3128497140
 F          4.5865935295        0.0632424661        0.1528481031
 F          3.4087483776        0.1909391880       -1.6613868856
 C          2.4517710779        1.2392584477        0.2355624686
 F          2.7475131206        1.4586853818        1.5484387220
 F          2.7147423510        2.4087712534       -0.3831472056
 H          0.9797638135        2.5277663636       -2.1501856965
 H          0.8543190365        4.0650798437       -1.3032044453
 H         -0.4004986493        3.6007682895       -2.4507030703
 H         -4.3368390605        2.3967448967        1.5897003840
 H         -4.3404878833        0.5903683908        3.2842777246
 H         -2.3299828882       -0.7778831935        3.6418216177
 H         -0.3060123870       -0.4109263480        2.2899140041
 H          1.3884729925       -3.7682682903        1.0210423574
 H         -0.0587098440       -4.1670522947        1.9518105669
 H          0.8313200318       -2.6735284636        2.2810829478
 H         -4.2576192754       -2.5020018828       -1.5702338911
 H         -4.3643784352       -0.6313591227       -3.1905368352
 H         -2.3978461655        0.7970651178       -3.5611427799
 H         -0.3327810937        0.4467771270       -2.2711399674
  45
  -91.0739005285000       0.158585746609945      !
 C         -1.3834033002        1.4882959936       -1.5646028216
 C         -1.3706324394        1.7043462561       -0.0963445061
 S         -2.6254621828        2.6713432068        0.6103168060
 C         -1.9198897832        2.5118562743        2.1944349910
 C         -2.4174923316        3.0439683074        3.3733784272
 C         -1.7295692099        2.7963160262        4.5433504976
 C         -0.5750511650        2.0168870889        4.5330945238
 C         -0.0837818144        1.4842924421        3.3607557130
 C         -0.7443204859        1.7414393785        2.1585346801
 C         -0.4475545312        1.2857624169        0.8240418884
 C          0.7187993024        0.5070195521        0.4507796912
 C          0.7496273519       -0.5847927386       -0.3452116613
 C         -0.3865438500       -1.3818373571       -0.7751274718
 C         -1.3046435630       -1.8726789290        0.1113046653
 C         -1.3469390615       -1.7011176539        1.5854237236
 S         -2.5158241354       -2.8484929971       -0.6599982136
 C         -1.8041669784       -2.5746285675       -2.2264343097
 C         -2.2753575518       -3.0477347578       -3.4411435424
 C         -1.5983259171       -2.6891356658       -4.5884644612
 C         -0.4834804804       -1.8555496947       -4.5229807343
 C         -0.0160166735       -1.3845620762       -3.3157041113
 C         -0.6602112002       -1.7622399738       -2.1362499560
 C          2.1785771302       -1.0269739766       -0.5736664560
 F          2.4655146817       -1.5588829839       -1.7767793906
 F          2.5372838487       -1.9827204676        0.3324134341
 C          2.9745238736        0.2752476040       -0.2989184445
 F          4.2621804815        0.0910220159        0.0284061555
 F          2.9567519287        1.0454404444       -1.4144829675
 C          2.1202769235        0.9456820451        0.8115114977
 F          2.5492859950        0.4784345642        2.0162455641
 F          2.2810394141        2.2844521007        0.8588475144
 H         -0.3784432001        1.2992147183       -1.9345305534
 H         -1.7936008754        2.3612011507       -2.0682734248
 H         -2.0061427424        0.6303313787       -1.8207763363
 H         -3.3211418793        3.6328401110        3.3654291625
 H         -2.0933419029        3.2024622865        5.4744615142
 H         -0.0572308915        1.8222759963        5.4597785373
 H          0.8018795297        0.8727500683        3.3793571086
 H         -1.9875976528       -0.8590400601        1.8520505474
 H         -0.3517073554       -1.5051243983        1.9781817706
 H         -1.7507676876       -2.5935793131        2.0584784926
 H         -3.1534566363       -3.6730749866       -3.4779830114
 H         -1.9440990874       -3.0452592767       -5.5464991451
 H          0.0193519269       -1.5690293293       -5.4337761660
 H          0.8387650620       -0.7285663501       -3.2829873689
  45
  -91.0738357643000       0.148081425201097      !
 C         -1.3060142562        1.5340045692       -1.5975334564
 C         -1.3323947437        1.7220352857       -0.1254019273
 S         -2.6124492725        2.6632644190        0.5709460363
 C         -1.9439732417        2.4743989118        2.1678746918
 C         -2.4773268283        2.9703416670        3.3469862098
 C         -1.8143220014        2.7029375809        4.5269388323
 C         -0.6462684843        1.9434927655        4.5260341026
 C         -0.1188151940        1.4469047810        3.3536461701
 C         -0.7579270182        1.7195977885        2.1432653698
 C         -0.4282139118        1.2929153901        0.8078805814
 C          0.7426377200        0.5149567885        0.4443955795
 C          0.7691796600       -0.5843962177       -0.3395424958
 C         -0.3758885117       -1.3759944907       -0.7573661238
 C         -1.2853731801       -1.8615364069        0.1403816523
 C         -1.2999025942       -1.7031398203        1.6165923459
 S         -2.5215548505       -2.8158651866       -0.6179913729
 C         -1.8319907200       -2.5391666287       -2.1935977064
 C         -2.3300534836       -2.9948692796       -3.4042399616
 C         -1.6647457244       -2.6392678440       -4.5592845645
 C         -0.5326185327       -1.8282512434       -4.5051978895
 C         -0.0382760240       -1.3743817069       -3.3021021600
 C         -0.6739444980       -1.7455765618       -2.1159336079
 C          2.1955047504       -1.0325325312       -0.5692039162
 F          2.4748327184       -1.5690491081       -1.7720251407
 F          2.5537047465       -1.9864137232        0.3391035358
 C          2.9975370333        0.2679413645       -0.3019232265
 F          4.2838903530        0.0801507853        0.0272285777
 F          2.9835467309        1.0300743796       -1.4234819165
 C          2.1445347704        0.9542608427        0.8005058252
 F          2.5675224658        0.5048629881        2.0134685352
 F          2.3092334202        2.2933903422        0.8276922301
 H         -0.2922380873        1.3457375322       -1.9428509084
 H         -1.6962945179        2.4189702259       -2.0956608398
 H         -1.9264040234        0.6853265465       -1.8872186252
 H         -3.3885923221        3.5471897909        3.3312885376
 H         -2.2073053190        3.0797162765        5.4585126743
 H         -0.1473999109        1.7358432771        5.4601949448
 H          0.7775910484        0.8507325126        3.3764826993
 H         -0.3000396064       -1.4951925502        1.9905954042
 H         -1.6794075506       -2.6063504974        2.0896611257
 H         -1.9487359791       -0.8745525400        1.9044463149
 H         -3.2180036381       -3.6065988956       -3.4316510654
 H         -2.0303184446       -2.9840268873       -5.5141153424
 H         -0.0369493315       -1.5472387353       -5.4216048920
 H          0.8302639702       -0.7363427859       -3.2768199861
