  94
       -131.52032932
 C         -4.4641001094        2.8793976091       -4.5980352110
 C         -3.9011788672        2.0319536187       -3.4644465908
 C         -4.8737967591        1.9461971577       -2.2922093105
 C         -4.2900272260        1.1979555609       -1.0865714267
 N         -3.2104206163        1.9103112130       -0.4467108662
 C         -3.6208718771        2.9458233110        0.4720953900
 C         -3.7047113487        2.4439310868        1.9176937252
 C         -3.9631771952        3.5891319248        2.8906934529
 C         -4.0708689676        3.0933333874        4.3270559508
 C         -1.8992188869        1.6105670734       -0.6201843195
 C         -1.4648689466        0.6861469710       -1.5987050444
 C         -0.1380279793        0.4070441855       -1.7655807160
 C          0.8537378738        1.0283990984       -0.9926490996
 C          2.2190948851        0.6511589617       -1.1061073725
 N          3.1611336155        1.2540807684       -0.4645201657
 C          4.4069708500        0.7231939340       -0.2672103301
 C          5.5531926286        1.4607368897       -0.5249917354
 C          6.8136419386        0.9323513778       -0.2603525120
 C          7.9657500053        1.6966620923       -0.5405361161
 N          8.8885163081        2.3365933648       -0.7735703429
 C          6.9311516963       -0.3630643188        0.2752236622
 C          8.2022594235       -0.9171158987        0.5334955718
 N          9.2251838486       -1.3878047296        0.7517669800
 C          5.7850911542       -1.1007130736        0.5613725361
 C          4.5258103080       -0.5734710855        0.3211322739
 N          3.3889472588       -1.3077506365        0.5345464589
 C          2.3989561905       -0.9180665893        1.2588258811
 C          1.1063797798       -1.5066716641        1.1653222586
 C          0.0780046746       -1.1470305605        2.0467766571
 C         -1.1960301424       -1.6232505152        1.9049690911
 C         -1.5345086120       -2.4898286722        0.8400108898
 N         -2.7908111420       -2.9931275040        0.7029256059
 C         -3.1967861564       -3.6267768195       -0.5315431622
 C         -3.2968619537       -2.6217404040       -1.6837794589
 C         -3.4887033563       -3.2954668628       -3.0374727790
 C         -3.5738924040       -2.2610364890       -4.1538607349
 C         -3.8144003828       -2.7238598497        1.6830626617
 C         -4.5138375792       -1.3756776825        1.4719917278
 C         -5.4599492421       -1.0293914333        2.6201157495
 C         -4.7306460747       -0.7423946750        3.9281549188
 C         -0.5180393158       -2.8261089521       -0.0642830224
 C          0.7749822507       -2.3688121378        0.0926481315
 O          1.7057264237       -2.7278422524       -0.8041560538
 C          0.4292739438        1.9530793980       -0.0089955562
 O          1.3253071332        2.5583877449        0.7865207199
 C         -0.9129371253        2.2219581374        0.1678508658
 H         -5.4022071636        2.4627937711       -4.9585620679
 H         -3.7637337768        2.9167243535       -5.4282844011
 H         -4.6489186256        3.8965953542       -4.2599822744
 H         -3.6938637760        1.0281353318       -3.8387391831
 H         -2.9635884478        2.4646335927       -3.1169859828
 H         -5.7854654000        1.4359291032       -2.6097287671
 H         -5.1500555311        2.9573481902       -1.9898715900
 H         -3.9468157529        0.2160220115       -1.3980978482
 H         -5.0813039595        1.0619282251       -0.3442438073
 H         -4.6016855072        3.3075252234        0.1613968277
 H         -2.9262784649        3.7842786455        0.4123586122
 H         -2.7686369063        1.9516061830        2.1751401222
 H         -4.5078047242        1.7137717755        1.9979068976
 H         -4.8872178744        4.1011986344        2.6130137105
 H         -3.1499436449        4.3147015535        2.8185381016
 H         -4.2307231531        3.9252660090        5.0074610817
 H         -4.9030707926        2.4009187272        4.4313251467
 H         -3.1573981404        2.5812748285        4.6230995791
 H         -2.1749857716        0.2047444005       -2.2430562314
 H          0.1689852738       -0.3093166483       -2.5136801130
 H          2.4356752286       -0.1936725079       -1.7635355819
 H          5.4616533754        2.4486436409       -0.9507813993
 H          5.8733650283       -2.0884418867        0.9883364757
 H          2.5082469360       -0.0955787544        1.9713971841
 H          0.3078620372       -0.4690613697        2.8562313517
 H         -1.9426893607       -1.3038780987        2.6071414167
 H         -2.4864925385       -4.4147799898       -0.7920118189
 H         -4.1656248816       -4.1012807649       -0.3701119798
 H         -2.3822450878       -2.0329238295       -1.7009058345
 H         -4.1374718891       -1.9545221033       -1.4969124647
 H         -2.6514649008       -3.9686669742       -3.2318615950
 H         -4.4008263456       -3.8960530919       -3.0265575199
 H         -2.6600417302       -1.6709163950       -4.1955425214
 H         -4.4134483382       -1.5879337563       -3.9883386850
 H         -3.7104440051       -2.7446879213       -5.1171282005
 H         -3.3618933215       -2.7530170491        2.6719356005
 H         -4.5540263071       -3.5269986164        1.6353029227
 H         -5.0843965232       -1.4178136430        0.5440631721
 H         -3.7561404926       -0.6012731001        1.3722668200
 H         -6.1664520480       -1.8482562874        2.7703841788
 H         -6.0412544807       -0.1473807018        2.3397972467
 H         -4.2620425124       -1.6392490433        4.3247533472
 H         -5.4302155013       -0.3780376722        4.6762897312
 H         -3.9642880075        0.0138114561        3.7784616359
 H         -0.6990633371       -3.4630462788       -0.9093764987
 H          2.5316135005       -2.2584498696       -0.5054797935
 H          2.2053672894        2.1959710579        0.4920732502
 H         -1.1582763400        2.9160478943        0.9487523067
