94
 energy: -131.573383032489 gnorm: 0.000054932577 xtb: 6.7.1 (edcfbbe)
C           -4.20576751625335        3.66721700968568       -4.71030649915751
C           -3.72793563976414        2.80760821360916       -3.54494921008956
C           -4.74641101358110        2.79701121263222       -2.40747414246215
C           -4.28444798291384        2.00974830430519       -1.17277721686207
N           -3.16881521342225        2.62810109419701       -0.48444640761230
C           -3.54030366650952        3.70900529172733        0.40723795813427
C           -3.76977274971432        3.23120258910012        1.84650105909984
C           -4.13902583520177        4.38865054453520        2.77170306328390
C           -4.39363226897073        3.91053810886015        4.19685787546979
C           -1.88737398001547        2.20593283450680       -0.59147265704938
C           -1.50091918370037        1.19374670313513       -1.50700224062051
C           -0.20230693785528        0.79019111484291       -1.61359842448636
C            0.82149442957600        1.34437441324442       -0.82464082709543
C            2.14954447363234        0.85878005533827       -0.92341040470784
N            3.12920189976934        1.32924988423427       -0.22443370933975
C            4.36196005663580        0.73586783807205       -0.15713682145893
C            5.50522634474254        1.51471409302856       -0.29364246064034
C            6.77327673980728        0.95050348893726       -0.19973186953808
C            7.91742488231390        1.75950930496106       -0.34516995155246
N            8.84070877536043        2.43198901723751       -0.46406108140561
C            6.90621626951692       -0.43252881426190        0.03525411057970
C            8.18355399804627       -1.02170981949066        0.10937973208752
N            9.21785562305810       -1.51676892232382        0.17293194205407
C            5.76804933723697       -1.21464464682695        0.20480487925616
C            4.49851266654181       -0.65386114563493        0.14311556145641
N            3.39302211525194       -1.45169764901568        0.28161333800957
C            2.41977901525422       -1.18273955030753        1.08629987131749
C            1.17159368872961       -1.85459403705542        1.04927339311881
C            0.16092108198536       -1.53432557005810        1.97249010721204
C           -1.08452583955898       -2.08779467336274        1.90565905539676
C           -1.42363401004920       -3.01657084987891        0.88911966383364
N           -2.66260666950288       -3.56059292938937        0.80948223245242
C           -3.06323835168382       -4.34603752703301       -0.34057569031022
C           -3.29007248386110       -3.49715974995649       -1.59799933039521
C           -3.63077666780094       -4.36425488896117       -2.80819252600848
C           -3.86575666698918       -3.51888394785567       -4.05513142232595
C           -3.67792565591194       -3.27770425104295        1.80355611375158
C           -4.43603077003939       -1.96842706529662        1.54565462068758
C           -5.44050301879256       -1.64571994402944        2.65352380751881
C           -4.78362628432212       -1.24343485455841        3.97031913304726
C           -0.40976831959856       -3.35357443419887       -0.02476209537661
C            0.85524403561015       -2.80718102031213        0.04956566862080
O            1.77190495909257       -3.18763386580352       -0.86386921724151
C            0.44998146909495        2.35786521844928        0.09296971476446
O            1.36571679787823        2.94253040155816        0.89155963776110
C           -0.86512909678851        2.76205612920108        0.19936399626386
H           -5.15168332286112        3.29495956893372       -5.09887107051918
H           -3.47611852224357        3.65576565959628       -5.51695075906534
H           -4.34782962885593        4.69858117832690       -4.39375532000888
H           -3.56371804189743        1.78802603154019       -3.90008509686557
H           -2.77423183399595        3.19358803296060       -3.17923512694406
H           -5.67835467467710        2.35268350828249       -2.76281523016580
H           -4.96188752606189        3.82801209642994       -2.12001402171809
H           -4.03214197436226        0.98993066076735       -1.45840007786480
H           -5.11719668935358        1.95381290725917       -0.46483747729201
H           -4.46378297267917        4.15360887474463        0.03066742152593
H           -2.77515761946683        4.48786399057080        0.38587895346398
H           -2.86737495912753        2.74110641966400        2.21583383990473
H           -4.57522618821084        2.49447517442757        1.85430143506762
H           -5.03437668301836        4.88607159130567        2.39159781094817
H           -3.32954841798402        5.12237966884739        2.77563768009851
H           -4.64954440388756        4.74900398635179        4.84064882336104
H           -5.21482611841585        3.19728685132207        4.22084291219311
H           -3.50687160289234        3.42700032058017        4.60169845891778
H           -2.22707784872511        0.73604215807424       -2.15458257360672
H            0.06125237684826        0.01742822855496       -2.32174219511532
H            2.31733017351288        0.05521386825305       -1.64901386198942
H            5.40012541467754        2.57078912866495       -0.49418686460873
H            5.86642122785144       -2.27122196003387        0.40629518477685
H            2.52760022871413       -0.40322848465871        1.84888573046633
H            0.38536665922497       -0.81319376471771        2.74572997212306
H           -1.81264720250403       -1.78537920944983        2.63667261732519
H           -2.30930110904501       -5.11227514056268       -0.54445032187953
H           -3.99006370411301       -4.86516113699613       -0.08986231122931
H           -2.39127770680971       -2.91517816611922       -1.80780300359089
H           -4.10542895279965       -2.79525783153820       -1.41715763611394
H           -2.81293079994308       -5.06402702308701       -2.99531416802239
H           -4.52658017025688       -4.95211292860370       -2.59471246944130
H           -2.97712030807178       -2.93853251981345       -4.29527646423120
H           -4.69445704055923       -2.83092905625612       -3.90111113032423
H           -4.10058733383060       -4.15245464394380       -4.90742236944190
H           -3.21026687412720       -3.25678438759566        2.78911502477082
H           -4.39051786067321       -4.10627004438627        1.80340711615890
H           -4.97362409830022       -2.05749425350013        0.60032497814201
H           -3.72120865988406       -1.14964319750193        1.44739113783433
H           -6.08655208772465       -2.51070157248720        2.82007665130692
H           -6.07477412468086       -0.82394188926116        2.31401638344783
H           -4.24236186040285       -2.07492897965854        4.41516495372459
H           -5.53957910444066       -0.92048013616417        4.68288916994396
H           -4.08792384489574       -0.42128056183695        3.81631748738552
H           -0.57089481652733       -4.06156139514874       -0.81887958700045
H            2.60126505458973       -2.69538808139831       -0.66211339136794
H            2.23723918569145        2.53556047794956        0.67693207056837
H           -1.06170496303641        3.52636753083744        0.93067714746928
