  94
       -131.47732702
 C         -6.0735195196        2.0145409000       -4.3478529995
 C         -5.8157523856        1.7421104007       -2.8715290145
 C         -4.6063834785        2.5171856153       -2.3576823184
 C         -4.3506991854        2.2230334672       -0.8758271785
 N         -3.1699825322        2.8862135606       -0.3788109678
 C         -3.4122194793        4.1269128824        0.3128134869
 C         -3.8104771640        3.8964605070        1.7771744408
 C         -2.6947277351        3.2431575392        2.5870026448
 C         -3.1600016980        2.8923225972        3.9941642798
 C         -1.9298335819        2.3556777460       -0.5513531414
 C         -1.7519277515        1.1344242092       -1.2354352390
 C         -0.5137220182        0.5439308380       -1.3167991496
 C          0.6174949652        1.1450527956       -0.7801662026
 C          1.9183618516        0.4401049272       -0.7101366529
 N          3.0421065884        1.2820009039       -0.8860329799
 C          4.2235325194        0.8699674571       -0.5026062913
 C          5.3965448006        1.5631669334       -0.8557714089
 C          6.6398486912        1.0431240653       -0.5629978224
 C          7.8043157788        1.7417040906       -0.9379202114
 N          8.7428201593        2.3230546751       -1.2517877361
 C          6.7570915341       -0.2128874040        0.1061245909
 C          8.0355358270       -0.7519428528        0.3502039989
 N          9.0712630516       -1.1995420455        0.5603744093
 C          5.6290088792       -0.8856548842        0.5264236208
 C          4.3464347059       -0.3488990232        0.3074073889
 N          3.2756987262       -0.9018190229        0.8173558593
 C          2.0436430498       -0.2099002317        0.7687508043
 C          0.8556535025       -1.0678240740        0.9852379071
 C         -0.2905100693       -0.5701487104        1.5935168416
 C         -1.4475074043       -1.3068390088        1.6568396011
 C         -1.5180986629       -2.5911599340        1.0791287287
 N         -2.6793253023       -3.3096608609        1.1015036079
 C         -2.7412657071       -4.6124869204        0.4881238003
 C         -2.8292791877       -4.5533613225       -1.0423800958
 C         -2.5958985957       -5.9163018027       -1.6893878015
 C         -1.1454041974       -6.3758575164       -1.5929632348
 C         -3.9227545105       -2.6658091963        1.4483080461
 C         -4.3674440800       -1.6209131049        0.4150664165
 C         -5.5124647438       -0.7562331944        0.9387153407
 C         -5.0468171987        0.2478865380        1.9877940904
 C         -0.3533108649       -3.1067889061        0.4948107717
 C          0.8092045084       -2.3614235938        0.4414126780
 O          1.9070844521       -2.8816384089       -0.1506775348
 C          0.4654200600        2.3937515271       -0.1551195289
 O          1.5474700185        3.0246978057        0.3534010446
 C         -0.7795109593        2.9783978826       -0.0435318713
 H         -6.2640616607        3.0725299378       -4.5120893475
 H         -6.9358510911        1.4518735090       -4.6956326060
 H         -5.2104416793        1.7258341826       -4.9439808397
 H         -6.6979532388        2.0198010077       -2.2896775642
 H         -5.6462482474        0.6721306163       -2.7240758892
 H         -4.7727797707        3.5866445364       -2.4953147794
 H         -3.7237747910        2.2430714723       -2.9341139816
 H         -4.2635122956        1.1485536657       -0.7347428213
 H         -5.2024834107        2.5705039847       -0.2929480879
 H         -4.2254392766        4.6492626651       -0.1988051053
 H         -2.5316909352        4.7613336937        0.2678902717
 H         -4.6875469843        3.2518060831        1.8093701747
 H         -4.0802061197        4.8550161802        2.2222966224
 H         -1.8439909092        3.9216160860        2.6498563532
 H         -2.3679709971        2.3407363998        2.0769086579
 H         -2.3554090115        2.4237358372        4.5558480195
 H         -3.4734098486        3.7856348943        4.5291917448
 H         -4.0010207528        2.2036513537        3.9591170665
 H         -2.5828931409        0.6365646154       -1.6977614546
 H         -0.4151698310       -0.4144573609       -1.8042044017
 H          1.9418218022       -0.3975798183       -1.4171555254
 H          5.3042225663        2.4871100307       -1.4056400115
 H          5.7144791869       -1.8100774578        1.0766351030
 H          2.0412829986        0.6327023127        1.4705694127
 H         -0.2702451802        0.4248988968        2.0096214854
 H         -2.2998131212       -0.8766755925        2.1450458142
 H         -1.8531807035       -5.1699858182        0.7764897034
 H         -3.6114262201       -5.1394378295        0.8846657214
 H         -2.0811370193       -3.8507345075       -1.4011874887
 H         -3.8129930744       -4.1813557673       -1.3309785386
 H         -3.2467608588       -6.6577024208       -1.2216762363
 H         -2.8731590011       -5.8517533247       -2.7434965980
 H         -0.8522952161       -6.5653309722       -0.5624275195
 H         -0.4787820719       -5.6232500119       -2.0107967773
 H         -1.0075268729       -7.2980741277       -2.1508551156
 H         -3.8153365085       -2.1850964372        2.4196348793
 H         -4.6907229597       -3.4343421117        1.5406290176
 H         -4.6836044979       -2.1320380502       -0.4948684717
 H         -3.5132690638       -0.9914584027        0.1756938208
 H         -6.2904805352       -1.3954250381        1.3601822803
 H         -5.9564754875       -0.2124708294        0.1031606422
 H         -4.7370587566       -0.2541386966        2.9009064868
 H         -5.8594547237        0.9240833861        2.2445369461
 H         -4.2129129152        0.8268871845        1.6073684681
 H         -0.3245673803       -4.0780134003        0.0420717801
 H          2.6258084209       -2.2345586208        0.0819859583
 H          2.3105067744        2.4903186825        0.0097594173
 H         -0.8214132161        3.9163109364        0.4757740481
