94
 energy: -131.529966319371 gnorm: 0.000115651124 xtb: 6.7.1 (edcfbbe)
C           -4.31084746021423        3.61424566754886       -4.46541164798527
C           -3.88454686471358        2.90279328668228       -3.18570035098936
C           -4.79468068926061        3.26958650858999       -2.01603146390633
C           -4.36743954710060        2.63426441627057       -0.68375477914917
N           -3.11356383947922        3.15890992900755       -0.18732176445007
C           -3.22707691222600        4.41255710945705        0.52663984965147
C           -3.33526293576305        4.20764664114349        2.04407505566819
C           -3.47609713830782        5.53650125431871        2.78271158489771
C           -3.60768813214088        5.33076717844202        4.28770991802254
C           -1.92267996193592        2.51419835488070       -0.30770338741307
C           -1.79513758099147        1.29021379124940       -1.00315907682211
C           -0.58654286823269        0.64735116981953       -1.09553068283842
C            0.57737453639884        1.17189379420311       -0.53705911905189
C            1.85616610386684        0.41869773333014       -0.60916963783883
N            3.00241568816228        1.26381929683697       -0.62252649094963
C            4.18035384802488        0.74363826779696       -0.37993833840429
C            5.36017288003281        1.48765058143392       -0.58407641846396
C            6.59705665455411        0.88705437722174       -0.47871080554938
C            7.76863141889080        1.63072028336749       -0.70963977603277
N            8.71844906869901        2.24956750960215       -0.89856622094321
C            6.70049047735388       -0.50164677719257       -0.15291661859778
C            7.97037242477677       -1.10438694859734       -0.09735085109505
N            9.00194893007347       -1.60896300571227       -0.05161577142622
C            5.56816586104386       -1.23860475835398        0.12329705542864
C            4.29387450472734       -0.63657723197710        0.09246816324329
N            3.22942213112951       -1.28501924974899        0.49651253628700
C            2.00171331876977       -0.58001699033103        0.64357107027988
C            0.81951191059845       -1.47615583681358        0.74008800474056
C           -0.31826824271805       -1.06679825957201        1.43215786957183
C           -1.45127254253145       -1.83859791229464        1.49631030453026
C           -1.51900456702414       -3.08774359139661        0.83951259465324
N           -2.64009474066462       -3.85970339231102        0.88755676799637
C           -2.79525979302214       -5.00381668246116        0.01670804200056
C           -3.00363055995034       -4.61664965915080       -1.45392866347456
C           -3.10263963215860       -5.85173636131159       -2.34639201490656
C           -3.32033603734433       -5.47237946682915       -3.80689763285085
C           -3.77558561611769       -3.48552892937972        1.70077744470126
C           -4.72879248074690       -2.50922874350370        0.99525131150180
C           -5.82217004175569       -1.97869624611097        1.92406549026305
C           -5.30408056414219       -0.99435523525928        2.96809188194489
C           -0.36878601229246       -3.50331200187351        0.15049132964207
C            0.77659525970242       -2.72855898582431        0.10241606732859
O            1.84938552405597       -3.22423218892711       -0.55938634651716
C            0.47482735596923        2.40348289618131        0.13309528619166
O            1.56011307530695        3.00694137813413        0.67448454237603
C           -0.74570581267433        3.04440417775066        0.24749570508915
H           -5.33253424855489        3.34902674946841       -4.73006235961569
H           -3.65961245790560        3.33503344633606       -5.29065138338293
H           -4.25885824108352        4.69388228147365       -4.34053658308086
H           -3.91706540758575        1.82409722951140       -3.35205033889348
H           -2.85386013225516        3.17478978474306       -2.94896086807665
H           -5.81300791916108        2.94272960274510       -2.23506977000966
H           -4.81148182293747        4.35591900237350       -1.90987620671491
H           -4.31061236324236        1.55315010443812       -0.79438892453000
H           -5.13586222292619        2.84807344169852        0.06535261495210
H           -4.12589352839435        4.92200677710240        0.17397181366120
H           -2.37621069092314        5.05622881565460        0.29418120473775
H           -2.45024566778065        3.68054222537985        2.40424468739479
H           -4.20391825426923        3.58188636061386        2.25924944368520
H           -4.35617279706422        6.06710603723862        2.41212871851088
H           -2.60269535387717        6.16002513287854        2.57829289309346
H           -3.70488565892526        6.28741538951024        4.79592885892517
H           -4.48516658063095        4.72992564975637        4.51749112955144
H           -2.73074277457140        4.82157852392291        4.68223565771474
H           -2.63999829568769        0.83993677657672       -1.49190121936261
H           -0.52689439427525       -0.29096430837443       -1.62782228454665
H            1.85737170027855       -0.22816465377529       -1.50353075830752
H            5.27517078549070        2.52350498107113       -0.87658197342551
H            5.64471234264188       -2.27483662298408        0.41685707831769
H            2.04870802653776        0.06978733220843        1.53470139632507
H           -0.30187396502663       -0.10994690033916        1.93370350746282
H           -2.29099037988621       -1.45531330274568        2.04700597840365
H           -1.91967592745908       -5.65459502916362        0.10218658021649
H           -3.65963064790502       -5.57560874509218        0.35860538238144
H           -2.17287217767230       -3.99198035437112       -1.78593255088874
H           -3.91804283990482       -4.02910471316675       -1.54726212108152
H           -2.18455465373551       -6.43734127783797       -2.25890780779997
H           -3.92977056826975       -6.48023312888616       -2.00840837370104
H           -2.49664618411809       -4.86063963367121       -4.16934299683293
H           -4.24332283788377       -4.90821304560401       -3.92333647738970
H           -3.38282992418141       -6.36366781688879       -4.42709008638765
H           -3.41268226078961       -3.05203413305055        2.63353225639696
H           -4.32359596507401       -4.39542623529652        1.95777124735340
H           -5.19842424728681       -3.02479942719148        0.15617176037317
H           -4.15154533090558       -1.67471423220286        0.59494437436622
H           -6.31162973975324       -2.81689384643836        2.42475724741435
H           -6.57528003360536       -1.47524083516527        1.31381400752657
H           -4.63464726611921       -1.47871310506228        3.67485480682287
H           -6.13482086778233       -0.57627470615213        3.53226437164107
H           -4.76991221907318       -0.17588307754323        2.48982757071562
H           -0.31379328337336       -4.45415000403987       -0.35032810456141
H            2.61899802863479       -2.65832556493402       -0.30466126924602
H            2.34964819410107        2.54068563254993        0.30587494854948
H           -0.73144955896269        3.97887912151370        0.78034863396731
