  93
       -144.41946586
 N         -0.0128512889        0.5536836595        1.1388503612
 C         -0.0089839545       -0.0115421365        0.1411842403
 C         -0.0019610174       -0.7708654929       -1.0505450704
 C          1.2169870956       -1.1957757849       -1.6081274108
 N          2.4275095816       -0.7703743122       -1.0657695638
 C          3.4681758146       -1.6006101948       -0.6842248093
 C          3.5553140239       -2.9838973362       -0.7104604438
 C          4.7105886926       -3.5686324881       -0.2316273576
 C          5.7745559806       -2.8106309283        0.2734245499
 C          6.9897715408       -3.4805441896        0.7609421741
 C          8.2493128961       -2.9615353612        0.4697880014
 C          9.3931425265       -3.5909361061        0.9238520556
 C          9.2985634808       -4.7469435847        1.6803698173
 C          8.0516622637       -5.2697633050        1.9793815356
 C          6.9069284938       -4.6439672202        1.5224011695
 C          5.6701626364       -1.4258190516        0.3175272825
 C          4.5166459331       -0.8189830766       -0.1522350768
 C          4.0858868122        0.5510866501       -0.2268622429
 C          4.6868473074        1.7518508235        0.1144359684
 C          4.0025539672        2.9395802949       -0.1093961976
 C          4.6080428490        4.2280566681        0.2597055077
 C          3.8440507510        5.2235780763        0.8642689237
 C          4.4145269584        6.4327079358        1.2157888006
 C          5.7557739227        6.6696841841        0.9657482842
 C          6.5245866561        5.6874137401        0.3642771021
 C          5.9568797314        4.4760957775        0.0159573932
 C          2.7340547216        2.9058401005       -0.7020561594
 C          2.1237047665        1.7211859306       -1.0590786327
 C          2.7926981579        0.5374189535       -0.7921388549
 C          1.2054519806       -2.0677577680       -2.6922853352
 C          0.0052078553       -2.5088084621       -3.2198499479
 C         -1.1989134408       -2.0754332933       -2.6945589116
 C         -1.2167352557       -1.2010864871       -1.6128691028
 N         -2.4298190851       -0.7744297644       -1.0766426466
 C         -2.7982695359        0.5360493488       -0.8233922889
 C         -2.1328732698        1.7159741813       -1.1149048540
 C         -2.7472786841        2.9054678520       -0.7826581399
 C         -4.0152525323        2.9463059125       -0.1891274420
 C         -4.6253754922        4.2410712443        0.1492949925
 C         -5.9743055098        4.4801598778       -0.1023031966
 C         -6.5445586669        5.6989297655        0.2150635610
 C         -5.7784008717        6.6971091367        0.7932961222
 C         -4.4369038476        6.4690424753        1.0510246652
 C         -3.8638193863        5.2527737790        0.7299826415
 C         -4.6943314670        1.7611700416        0.0625315013
 C         -4.0900378648        0.5554654239       -0.2552700137
 C         -4.5143047745       -0.8149693030       -0.1532703147
 C         -5.6609187074       -1.4193480825        0.3363637880
 C         -5.7656645265       -2.8043112828        0.3012275966
 C         -6.9737942048       -3.4729398227        0.8079325827
 C         -7.5362116642       -4.5447375255        0.1187479449
 C         -8.6722412731       -5.1712002418        0.5962782643
 C         -9.2626431112       -4.7410961778        1.7726676680
 C         -8.7112355565       -3.6773188295        2.4670399454
 C         -7.5783284896       -3.0464743070        1.9882515268
 C         -4.7066607965       -3.5662727553       -0.2083640487
 C         -3.5517002066       -2.9851855212       -0.6921784887
 C         -3.4666712872       -1.6016150361       -0.6798575748
 H          2.7457500761       -3.5933593623       -1.0836543250
 H          4.8055859002       -4.6438691659       -0.2633441693
 H          8.3297387747       -2.0692770014       -0.1343125578
 H         10.3633804410       -3.1799910279        0.6844857967
 H         10.1924837727       -5.2377944319        2.0359274497
 H          7.9711322361       -6.1679340256        2.5746101676
 H          5.9368249917       -5.0459990960        1.7766936489
 H          6.4653098481       -0.8296721060        0.7387288654
 H          5.6667159672        1.7599589667        0.5670961524
 H          2.8019446530        5.0364910373        1.0787426296
 H          3.8110426806        7.1933075326        1.6898859102
 H          6.2006927410        7.6150101844        1.2395697603
 H          7.5708034462        5.8679656270        0.1629627846
 H          6.5578398078        3.7203188177       -0.4691091089
 H          2.2296268822        3.8380871363       -0.9075280768
 H          1.1577974740        1.7298026967       -1.5405083124
 H          2.1432353618       -2.3803527560       -3.1245272482
 H          0.0081839422       -3.1804760610       -4.0647683106
 H         -2.1343907525       -2.3944195953       -3.1271161005
 H         -1.1677141290        1.7162642286       -1.5981286760
 H         -2.2476571064        3.8353755862       -1.0094274277
 H         -6.5733433658        3.7113491624       -0.5689908914
 H         -7.5909472485        5.8723125441        0.0084223618
 H         -6.2249865332        7.6484424996        1.0426450607
 H         -3.8355345384        7.2424387479        1.5068104911
 H         -2.8216245793        5.0727080373        0.9501490243
 H         -5.6741611431        1.7760920529        0.5151273777
 H         -6.4687668721       -0.8186191690        0.7256592410
 H         -7.0895255148       -4.8747777056       -0.8082226905
 H         -9.1003329883       -5.9979709927        0.0478477903
 H        -10.1482809417       -5.2330984473        2.1469196074
 H         -9.1650733374       -3.3400488268        3.3877545517
 H         -7.1423987950       -2.2282152116        2.5429583152
 H         -4.7875141078       -4.6431257396       -0.1971560832
 H         -2.7384368772       -3.5966360681       -1.0540616733
