  99
       -164.67551165
 C          6.4090950780        1.3787449118        1.7951642957
 C          5.0397880903        1.3865633916        1.9599687697
 C          4.2966852968        0.2418228865        1.7134626214
 C          4.9072073511       -0.9333008627        1.2969406839
 C          6.2953208899       -0.9222144064        1.1086836311
 C          7.0332005993        0.2188685003        1.3632393657
 O          6.9884404253       -2.0140915503        0.6530878787
 C          6.2670283729       -3.1446878319        0.3670248683
 C          6.9706521684       -4.2361854107       -0.1070335480
 C          6.3155610846       -5.4283707286       -0.3788629866
 C          4.9573756373       -5.5251806541       -0.1535039846
 C          4.2463108346       -4.4315780296        0.3164383621
 C          4.8816122783       -3.2199681891        0.5580338596
 N          4.1866557391       -2.1066104042        1.0367750601
 C          2.7775258268       -2.0681453421        0.9743797496
 C          2.0251530091       -1.7887366156        2.1109887698
 C          0.6570407800       -1.6106377276        2.0160124598
 C          0.0217968833       -1.7067913528        0.7846392844
 C         -1.3746477124       -1.2670061199        0.6020085606
 N         -2.3837932277       -1.9997877920        0.9823257534
 C         -3.6272120490       -1.5312428953        0.7408797039
 C         -4.7505913823       -2.2892150748        1.1240949139
 C         -6.0077268816       -1.8208497955        0.8701296874
 C         -6.2018281304       -0.5765794663        0.2304038992
 N         -7.5159659990       -0.1150963114        0.0204561757
 C         -7.9816925911        1.0406989592        0.6549916989
 C         -7.1824587391        1.8044073711        1.4957065289
 C         -7.6850055479        2.9356748385        2.1203556299
 C         -8.9959081866        3.3184258193        1.9226176366
 C         -9.8142381330        2.5530810714        1.1055036688
 C         -9.3189275786        1.4227441631        0.4823823554
 O        -10.2009378134        0.7026229027       -0.2837960153
 C         -9.7213396598       -0.4131746238       -0.9207975835
 C        -10.6069333985       -1.1087991337       -1.7223903521
 C        -10.1863303350       -2.2320004257       -2.4190892687
 C         -8.8716676913       -2.6404715175       -2.3224500198
 C         -7.9790824630       -1.9457791863       -1.5203697638
 C         -8.3929532845       -0.8387406620       -0.7906678376
 C         -5.1215941203        0.1785214589       -0.1625481385
 C         -3.8200212379       -0.2832190092        0.0889135815
 N         -2.7604343347        0.4717375560       -0.2832863264
 C         -1.5691637147        0.0078964442       -0.0330099983
 C         -0.3540501457        0.7771731000       -0.3636648806
 C          0.1494889059        0.8160582901       -1.6574362244
 C          1.4050597003        1.3412048224       -1.9015458605
 C          2.1740067885        1.8387841472       -0.8539963878
 N          3.5044067136        2.2528022058       -1.0733206405
 C          4.4798875480        1.3181955786       -1.4422603764
 C          4.1693247396        0.0081164979       -1.7805553131
 C          5.1600815653       -0.8918439232       -2.1435144263
 C          6.4819129138       -0.4990891022       -2.1743561789
 C          6.8121348451        0.7994824865       -1.8189461504
 C          5.8284078638        1.6972674546       -1.4480640534
 O          6.2454537482        2.9496617569       -1.0765237032
 C          5.2821774552        3.8481021085       -0.6942764612
 C          5.7107977414        5.1088025135       -0.3228850717
 C          4.7920341241        6.0843260968        0.0359008630
 C          3.4432488880        5.7943818714        0.0003421132
 C          3.0085430494        4.5299196929       -0.3666465031
 C          3.9177471383        3.5316522723       -0.6933114319
 C          1.6259399559        1.8926061142        0.4253217053
 C          0.3801167860        1.3550778343        0.6681264542
 C          0.7629862787       -2.0801023348       -0.3332539840
 C          2.1245757468       -2.2716984133       -0.2391068958
 H          6.9917036496        2.2661225399        1.9848288691
 H          4.5376458443        2.2874098781        2.2813243175
 H          3.2256825321        0.2670063329        1.8314427203
 H          8.0987978428        0.1804570246        1.2051285324
 H          8.0342656143       -4.1341482148       -0.2516565362
 H          6.8727182807       -6.2734871197       -0.7508914983
 H          4.4375906541       -6.4528707839       -0.3374211431
 H          3.1874601572       -4.5214864732        0.5041288090
 H          2.5207233697       -1.6917883534        3.0655326727
 H          0.0805555783       -1.3681818479        2.8963833377
 H         -4.5857020221       -3.2315324497        1.6223969354
 H         -6.8770292890       -2.3880751314        1.1690910346
 H         -6.1601383427        1.5103820024        1.6729803798
 H         -7.0390803792        3.5105646208        2.7655110170
 H         -9.3908353009        4.1991127730        2.4036426612
 H        -10.8479423159        2.8129805272        0.9428182525
 H        -11.6221759415       -0.7522733446       -1.7908322201
 H        -10.8851797339       -2.7702926709       -3.0394327547
 H         -8.5249387798       -3.5007195410       -2.8739599314
 H         -6.9493826080       -2.2637364369       -1.4674516755
 H         -5.2484098832        1.1269688501       -0.6608849209
 H         -0.4347958607        0.4106353360       -2.4700371868
 H          1.8039967405        1.3516172977       -2.9049450164
 H          3.1418863384       -0.3158371314       -1.7456112882
 H          4.8892535682       -1.9056472964       -2.4001785424
 H          7.2563274678       -1.1944560303       -2.4562965062
 H          7.8362291830        1.1360465723       -1.8114657536
 H          6.7701769447        5.3096543586       -0.3271612084
 H          5.1363597061        7.0642338412        0.3262458003
 H          2.7149687066        6.5494485717        0.2535459087
 H          1.9512269838        4.3183726379       -0.4073779570
 H          2.1942424000        2.3338038643        1.2296508405
 H         -0.0233497436        1.3639866170        1.6701553098
 H          0.2680782169       -2.1994279597       -1.2859760899
 H          2.6958025848       -2.5521709259       -1.1108411352
