  70
       -106.59996505
 C          9.8555661611       -0.3595795776       -0.4637311601
 C          9.2239834520       -1.1603081480       -1.4269692737
 C          7.8597388619       -1.2174867804       -1.4925387621
 C          7.0626743777       -0.4739631666       -0.5943428811
 C          5.6592101655       -0.5156394630       -0.6362070048
 C          4.8838524811        0.2222156037        0.2409328662
 C          3.4301097777        0.1776067864        0.1944889304
 C          2.6870032172        1.3951468595        0.1087940298
 C          3.3185309392        2.6332049023       -0.0472613994
 C          2.5992901943        3.8245237225       -0.0247519887
 C          1.2334911356        3.7965671667        0.1632859673
 C          0.5717491745        2.5749473020        0.2460661505
 C          1.2613324546        1.3620262293        0.1529406820
 C          0.5806329035        0.1057837144        0.1328515090
 C         -0.8720306879        0.0692496519        0.0967940151
 C         -1.5888327828        0.7861658690       -0.8714290874
 C         -2.9635930309        0.7402446627       -0.9212120888
 C         -3.6780572065       -0.0087281197        0.0143383785
 N         -5.0744806081       -0.0531296564       -0.0317036536
 C         -5.8473925781       -1.1971800003        0.0110843238
 C         -5.4564552820       -2.5276344767        0.0643172102
 C         -6.4465130607       -3.4917088678        0.0670183383
 C         -7.7954640268       -3.1496237872        0.0083946007
 C         -8.1899690891       -1.8286252619       -0.0715143552
 C         -7.2133892465       -0.8422023330       -0.0755922488
 C         -7.2575071188        0.5905351392       -0.1714914903
 C         -8.2939911829        1.5090657425       -0.2641084176
 C         -7.9833604948        2.8533961536       -0.3188267144
 C         -6.6602242239        3.2853205350       -0.2648847696
 C         -5.6116978124        2.3900806858       -0.1720993421
 C         -5.9158355241        1.0364095922       -0.1444577880
 C         -2.9794230520       -0.7156423134        0.9934263410
 C         -1.6033884415       -0.6852379939        1.0245217414
 C          1.3251446550       -1.1145161768        0.1382790248
 C          0.7006089489       -2.3591122295        0.0127231696
 C          1.4178174148       -3.5475744746        0.1116816503
 C          2.7762739331       -3.5098160687        0.3458688581
 C          3.4337357072       -2.2850383593        0.4058284017
 C          2.7483218406       -1.0774622691        0.2393589317
 C          5.5406691636        1.0304888557        1.2037425994
 C          6.8999127697        1.0770638281        1.2756122818
 C          7.7050817355        0.3368430686        0.3796621371
 C          9.1102993317        0.3732266752        0.4213982216
 H         10.9346309331       -0.3255226692       -0.4266706543
 H          9.8266587920       -1.7315492668       -2.1182137345
 H          7.3684695956       -1.8342124872       -2.2319446614
 H          5.1800417487       -1.1096902387       -1.4021268346
 H          4.3871399405        2.6699976975       -0.1930203335
 H          3.1194392843        4.7639577452       -0.1383413491
 H          0.6689110645        4.7146766419        0.2297334223
 H         -0.4973384087        2.5684155510        0.3933977155
 H         -1.0451002343        1.3433935865       -1.6202223529
 H         -3.4971648364        1.2616605819       -1.7020061635
 H         -4.4136481674       -2.8052461157        0.0894295348
 H         -6.1674331193       -4.5341866766        0.1115723113
 H         -8.5392164791       -3.9323917033        0.0154012920
 H         -9.2345712005       -1.5638103832       -0.1356286815
 H         -9.3201864868        1.1746898433       -0.2873491991
 H         -8.7744710199        3.5841947837       -0.3942368083
 H         -6.4488835638        4.3439464027       -0.2922757323
 H         -4.5913653659        2.7369352868       -0.1106847871
 H         -3.5281127584       -1.2664284564        1.7429389504
 H         -1.0745605719       -1.2115752849        1.8055571571
 H         -0.3612498967       -2.4039318654       -0.1747334606
 H          0.9018999163       -4.4913988491        0.0191063833
 H          3.3386330065       -4.4234873627        0.4674610912
 H          4.4968403010       -2.2706620297        0.5906597835
 H          4.9374864875        1.5803020102        1.9120677292
 H          7.3859233049        1.6804045125        2.0295778284
 H          9.5928632292        0.9920759190        1.1649346379
