  72
  -113.913523100000       0.731637977785114      !
 C         -2.2242428911        0.0425399332       -3.1956522422
 C         -3.1291524787        0.0186879721       -2.2104343961
 C         -2.7770015386        0.0061988166       -0.7418258075
 C         -1.3073062079        0.0066563818       -0.4870905180
 C         -0.4159280743        0.0254680422       -1.4880280807
 C         -0.8264276847        0.0492541742       -2.8989313524
 C          0.2925537608        0.0721201419       -3.6668943275
 C          1.4521079597        0.0613965886       -2.7941306392
 C          1.0207036142        0.0318953924       -1.4799752865
 C          1.9132389638        0.0058188210       -0.2798933472
 C          3.3474551326        0.0241648096       -0.7157815131
 C          4.4884203076        0.0128098834        0.0395611623
 C          4.7079572021       -0.0173643980        1.4419353825
 C          5.9807116514       -0.0201862857        1.9087881392
 C          7.0991827274        0.0056141255        1.0230573110
 C          6.9434283252        0.0340082674       -0.3252612231
 C          5.6356911612        0.0391212120       -0.8717995603
 C          5.1778745733        0.0662955415       -2.1675637704
 C          3.7507003270        0.0579567793       -2.1227911972
 C          2.8281712087        0.0758726512       -3.1313774510
 C          1.6380938487       -1.3093753161        0.4314088158
 C          1.9474758137       -2.4723907619       -0.2703313836
 C          1.7068565816       -3.7241508577        0.2583636553
 C          1.1446448153       -3.8411933483        1.5206809595
 C          0.8355193393       -2.7033608192        2.2333847824
 C          1.0781327938       -1.4415968543        1.6931407578
 S          0.6103514623       -0.0829876482        2.7179362337
 C          1.0665342741        1.3344649213        1.7700107014
 C          0.8138561902        2.5622568403        2.3792207951
 C          1.1118141304        3.7403065937        1.7298838311
 C          1.6725131364        3.6979730923        0.4623324082
 C          1.9236495346        2.4793990967       -0.1346451672
 C          1.6259216779        1.2768538469        0.5024450341
 C         -3.3800209007       -1.2519229345       -0.1287182082
 C         -2.5800541271       -2.3584828142        0.1332236055
 C         -3.1202015830       -3.5273507224        0.6370710425
 C         -4.4807905153       -3.6145696742        0.8811156106
 C         -5.2906554045       -2.5254794700        0.6290181974
 C         -4.7422140754       -1.3504599787        0.1299728325
 S         -5.8459038756        0.0005543206       -0.1594638689
 C         -4.7456134233        1.3523330358        0.1387522774
 C         -5.2980538373        2.5240987421        0.6410276993
 C         -4.4914655728        3.6142070029        0.8991389811
 C         -3.1298793183        3.5307769456        0.6592936105
 C         -2.5855358627        2.3650322961        0.1526260629
 C         -3.3825913370        1.2584025892       -0.1173839583
 H         -2.5362341796        0.0548051373       -4.2303511885
 H         -4.1860820801        0.0116842543       -2.4312225412
 H         -1.0142764345       -0.0059886586        0.5525487073
 H          0.3446740092        0.0945974902       -4.7400405190
 H          3.8628379392       -0.0369675947        2.1151727269
 H          6.1726386586       -0.0421969599        2.9719165534
 H          8.0895224654        0.0007378124        1.4564592222
 H          7.7959607497        0.0536969967       -0.9893010774
 H          5.7667259711        0.0898008533       -3.0648609309
 H          3.1289081261        0.1004142161       -4.1699085561
 H          2.3860646517       -2.3798122387       -1.2530085973
 H          1.9552782992       -4.6058345403       -0.3123516687
 H          0.9499883404       -4.8136293000        1.9468160638
 H          0.3976264812       -2.7682830007        3.2183468222
 H          0.3771526391        2.5691227694        3.3667658608
 H          0.9093879901        4.6859356676        2.2093668150
 H          1.9119208199        4.6119451967       -0.0593797764
 H          2.3609971612        2.4447360913       -1.1216014670
 H         -1.5209485169       -2.3114914289       -0.0745668744
 H         -2.4744789878       -4.3699788065        0.8312197168
 H         -4.9101565090       -4.5255525583        1.2691584297
 H         -6.3530607028       -2.5691006183        0.8143202250
 H         -6.3609997656        2.5643917579        0.8239152495
 H         -4.9242676774        4.5232108879        1.2879688235
 H         -2.4868030032        4.3742802680        0.8582324954
 H         -1.5255906449        2.3206163497       -0.0511085922
  72
  -113.911763690000       0.113691340817054      !
 C         -2.2618577203       -0.1305482437       -3.4998218046
 C         -3.2139127516       -0.1117159242       -2.5578033564
 C         -2.9351623595       -0.1005207061       -1.0818761066
 C         -1.4871081246       -0.2965566181       -0.7526261967
 C         -0.5455355426       -0.2226562765       -1.7043507413
 C         -0.8804154902       -0.1318323337       -3.1310332821
 C          0.2776140587       -0.0427947523       -3.8344849040
 C          1.3855648022       -0.0324452174       -2.8973082886
 C          0.8848257584       -0.1663571159       -1.6137096491
 C          1.6983300393       -0.1268199046       -0.3600285442
 C          3.1361985773        0.1298714933       -0.6991939656
 C          4.2189175318        0.2611718293        0.1275861033
 C          4.3542614598        0.2330163631        1.5406077707
 C          5.5838503069        0.3973630252        2.0876715239
 C          6.7394046910        0.5996268990        1.2757359500
 C          6.6638128425        0.6355842842       -0.0794741530
 C          5.4050420589        0.4658235439       -0.7080200753
 C          5.0298512804        0.4488949002       -2.0305358852
 C          3.6187306334        0.2397103194       -2.0776078622
 C          2.7681931127        0.1509936355       -3.1445110033
 C          1.6145672345       -1.5054076643        0.2777387939
 C          2.0993111181       -2.5710837302       -0.4771212153
 C          2.0841144382       -3.8650199551        0.0012931243
 C          1.5769092209       -4.1248628538        1.2654585223
 C          1.0907130772       -3.0852337919        2.0269539676
 C          1.1055209481       -1.7799420679        1.5376560337
 S          0.4400593816       -0.5635942379        2.6269153205
 C          0.5751153280        0.9375751620        1.7123807046
 C          0.0438789582        2.0636220998        2.3385733116
 C          0.0825312895        3.2929610108        1.7187869199
 C          0.6682588534        3.4076071874        0.4676077544
 C          1.1950377299        2.2900023076       -0.1468219092
 C          1.1527269575        1.0348748293        0.4551450467
 C         -3.7529863017       -1.1536153567       -0.3561428864
 C         -4.2740893099       -2.2379274056       -1.0517330812
 C         -4.9619479401       -3.2456086652       -0.4004532306
 C         -5.1377513337       -3.1901863064        0.9720548557
 C         -4.6222361948       -2.1249421083        1.6820132028
 C         -3.9308678968       -1.1156234737        1.0228148627
 S         -3.2814024626        0.1878863557        2.0246237150
 C         -3.2745872271        1.5139483411        0.8617579055
 C         -3.3692475660        2.7999130172        1.3804721360
 C         -3.3510303716        3.8915158207        0.5374503647
 C         -3.2546693018        3.6959908303       -0.8301875779
 C         -3.1614986791        2.4153799280       -1.3427220822
 C         -3.1682697473        1.3036340658       -0.5092526928
 H         -2.5203750340       -0.1217664951       -4.5497285036
 H         -4.2596740221       -0.0595575628       -2.8271402803
 H         -1.2415088428       -0.4129394506        0.2917160185
 H          0.3875848442        0.0340642224       -4.9009191796
 H          3.4816195871        0.0808064490        2.1590555972
 H          5.7113812893        0.3775335669        3.1605612996
 H          7.6918800918        0.7258787526        1.7711965675
 H          7.5441119440        0.7888358636       -0.6876107098
 H          5.6644400720        0.5716998322       -2.8877536406
 H          3.1282569306        0.2405527450       -4.1604453695
 H          2.5004859976       -2.3674537987       -1.4590220966
 H          2.4683915214       -4.6685563556       -0.6082809272
 H          1.5615792401       -5.1316872126        1.6542459854
 H          0.6897329726       -3.2613546384        3.0140221525
 H         -0.4036030880        1.9471602129        3.3143737267
 H         -0.3391898350        4.1575078273        2.2081313190
 H          0.7102265932        4.3650100562       -0.0289298877
 H          1.6517354183        2.3777721998       -1.1219299666
 H         -4.1177482247       -2.3027925087       -2.1180597834
 H         -5.3515003936       -4.0782560973       -0.9660486791
 H         -5.6706366260       -3.9740361245        1.4881391301
 H         -4.7407720316       -2.0623013904        2.7529398840
 H         -3.4470078490        2.9248140613        2.4496116944
 H         -3.4147446237        4.8888161196        0.9448258759
 H         -3.2429920880        4.5406786638       -1.5017553841
 H         -3.0670274290        2.2741750360       -2.4084256433
  72
  -113.911599700000       9.557907043983510E-002 !
 C         -2.2708947247       -0.2031116372       -3.4927184537
 C         -3.2243289308       -0.1652188646       -2.5528407967
 C         -2.9436851214       -0.1097273588       -1.0784697353
 C         -1.4996196348       -0.3258775603       -0.7427514605
 C         -0.5548604195       -0.2698913139       -1.6933713068
 C         -0.8903091562       -0.1910539102       -3.1210019330
 C          0.2663527158       -0.0964915819       -3.8255499018
 C          1.3737430139       -0.0706272907       -2.8888950236
 C          0.8758488495       -0.2068823483       -1.6039723450
 C          1.6968299084       -0.1667382107       -0.3545454525
 C          3.1234632466        0.1460300740       -0.6966505194
 C          4.2007334191        0.3279277709        0.1278788143
 C          4.3373367452        0.3267790629        1.5410971205
 C          5.5588473097        0.5514520785        2.0849676628
 C          6.7054210523        0.7879492967        1.2696504529
 C          6.6288733759        0.7980217955       -0.0859347717
 C          5.3781696135        0.5672755256       -0.7109866091
 C          5.0042197263        0.5180754447       -2.0330108361
 C          3.6015733572        0.2584838543       -2.0762770540
 C          2.7515670375        0.1399523311       -3.1404740525
 C          1.6716380551       -1.5661775148        0.2448264271
 C          2.2064665872       -2.5895677120       -0.5345956547
 C          2.2491067285       -3.8946311394       -0.0891696774
 C          1.7503497825       -4.2096033208        1.1657466053
 C          1.2143402173       -3.2127880808        1.9506859845
 C          1.1711080654       -1.8959311727        1.4948940640
 S          0.4458457707       -0.7409421275        2.6120494932
 C          0.5562418848        0.7972696450        1.7569479219
 C          0.0093709501        1.8898287850        2.4272906848
 C          0.0181471589        3.1404799681        1.8501850119
 C          0.5866909080        3.3098192060        0.5973356223
 C          1.1326913078        2.2257338331       -0.0589647068
 C          1.1239580204        0.9506267380        0.5007300901
 C         -3.7927723993       -1.1073096944       -0.3125661113
 C         -4.3497173150       -2.2006453127       -0.9652619323
 C         -5.0755509874       -3.1553961982       -0.2765624833
 C         -5.2536758143       -3.0376681901        1.0917448995
 C         -4.7006559431       -1.9644435748        1.7601921042
 C         -3.9719231333       -1.0082638544        1.0631951835
 S         -3.2785975493        0.3114925605        2.0136860214
 C         -3.2408572738        1.5904063530        0.7998567996
 C         -3.3094795379        2.8974405907        1.2674659850
 C         -3.2643314433        3.9545056496        0.3827497681
 C         -3.1670352093        3.7028885863       -0.9755826785
 C         -3.1026064495        2.4014258929       -1.4372309101
 C         -3.1373355832        1.3232866190       -0.5612486915
 H         -2.5268847265       -0.2193047096       -4.5430937344
 H         -4.2696793177       -0.1182075651       -2.8240847213
 H         -1.2587935754       -0.4310862014        0.3037831295
 H          0.3749635494       -0.0229785114       -4.8923319761
 H          3.4714785069        0.1492117651        2.1623973222
 H          5.6864774862        0.5557224430        3.1580211647
 H          7.6518650758        0.9609564244        1.7624959639
 H          7.5022537555        0.9772536375       -0.6969704949
 H          5.6333513054        0.6550476239       -2.8920875238
 H          3.1064662901        0.2332581512       -4.1578914754
 H          2.6013963571       -2.3442456877       -1.5092896191
 H          2.6721658634       -4.6637157652       -0.7172640490
 H          1.7799662130       -5.2255822755        1.5290630755
 H          0.8189838166       -3.4322353555        2.9313684472
 H         -0.4284616386        1.7301932332        3.4013561656
 H         -0.4137410179        3.9793771520        2.3739838347
 H          0.6020362780        4.2838637344        0.1329539464
 H          1.5775177288        2.3555631494       -1.0348941523
 H         -4.1933655390       -2.3145256879       -2.0274465181
 H         -5.4936230841       -3.9957592893       -0.8094632895
 H         -5.8172095997       -3.7794401567        1.6366953656
 H         -4.8198632423       -1.8536668565        2.8271047831
 H         -3.3888699534        3.0652047551        2.3305586842
 H         -3.3075283069        4.9682901987        0.7501422698
 H         -3.1328397852        4.5197864293       -1.6800387004
 H         -3.0090584858        2.2177162634       -2.4963438932
  72
  -113.911145280000       5.909161095799664E-002 !
 C         -2.2265277856       -0.1025741310       -3.1610237989
 C         -3.1277900894       -0.2208324958       -2.1799920197
 C         -2.8041453551       -0.0238491357       -0.7174001058
 C         -1.3417025261        0.1223032781       -0.4477787984
 C         -0.4403200710        0.1397088521       -1.4408751003
 C         -0.8474133251        0.1076672428       -2.8543018183
 C          0.2619099444        0.2592588247       -3.6205653909
 C          1.4183434838        0.3254812138       -2.7479708041
 C          0.9953136141        0.2377651285       -1.4327991501
 C          1.9059195036        0.1066501398       -0.2518738114
 C          3.3363109707        0.1354038831       -0.7058862259
 C          4.4859444449       -0.0158301845        0.0218275107
 C          4.7243447414       -0.2487527229        1.4020896636
 C          6.0009140085       -0.3955969676        1.8347355421
 C          7.1068796100       -0.3110796069        0.9372720087
 C          6.9343233939       -0.0784474763       -0.3891239698
 C          5.6215523786        0.0754899513       -0.9003688056
 C          5.1493125460        0.2854106127       -2.1738962363
 C          3.7238828773        0.3132197287       -2.1062433652
 C          2.7885825656        0.4034507169       -3.0980697796
 C          1.6230257301       -1.2733354685        0.3252172108
 C          1.8855209505       -2.3606286364       -0.5056793322
 C          1.6413023623       -3.6574605930       -0.1032213806
 C          1.1275174366       -3.8998278454        1.1619875146
 C          0.8667975169       -2.8394669137        2.0018362685
 C          1.1075090194       -1.5302960022        1.5863970999
 S          0.7007249421       -0.2819727735        2.7629360977
 C          1.1950990676        1.2159755149        1.9710822748
 C          1.0515960735        2.3684794741        2.7416126631
 C          1.3810632892        3.6019387317        2.2241067636
 C          1.8557038178        3.6914540133        0.9242110120
 C          2.0026905754        2.5463120924        0.1681460712
 C          1.6811698006        1.2889018559        0.6742371328
 C         -3.3278092487       -1.2091368998        0.0784387441
 C         -2.4548143050       -2.2124641794        0.4849196146
 C         -2.9058934345       -3.3171690036        1.1829539272
 C         -4.2522111530       -3.4459411076        1.4811686965
 C         -5.1367584422       -2.4671024914        1.0751845433
 C         -4.6771610312       -1.3561852132        0.3776536580
 S         -5.8835635765       -0.1653402878       -0.1215638885
 C         -4.8990405796        1.3013246597       -0.1421718846
 C         -5.5651365642        2.5062724610        0.0486258233
 C         -4.8653494865        3.6955200102        0.0307546122
 C         -3.4928112020        3.6786614132       -0.1551770648
 C         -2.8335739914        2.4777828594       -0.3439289313
 C         -3.5248080243        1.2717707666       -0.3517356791
 H         -2.5184088991       -0.2036486707       -4.1965815932
 H         -4.1670508583       -0.4146731150       -2.3997913201
 H         -1.0613628487        0.2245722987        0.5914016779
 H          0.3113613559        0.2992527260       -4.6932193880
 H          3.8902980438       -0.3133873833        2.0860244895
 H          6.2053724625       -0.5823807108        2.8792264397
 H          8.1008431436       -0.4387732632        1.3425205708
 H          7.7767253393       -0.0147964748       -1.0632493662
 H          5.7266439637        0.3907191545       -3.0727699972
 H          3.0742280953        0.5013832859       -4.1364683536
 H          2.2896696738       -2.1721012102       -1.4892966397
 H          1.8505707560       -4.4768638642       -0.7735467998
 H          0.9342354039       -4.9096683516        1.4907117594
 H          0.4673377410       -3.0006510223        2.9921368511
 H          0.6782463275        2.2722635851        3.7504017781
 H          1.2693288213        4.4879069512        2.8303810109
 H          2.1152719842        4.6510644770        0.5039033934
 H          2.3809584931        2.6133992530       -0.8414803345
 H         -1.4063940223       -2.1371780335        0.2364332581
 H         -2.2015038798       -4.0764320486        1.4862132728
 H         -4.6135452321       -4.3048592461        2.0257487415
 H         -6.1911942688       -2.5486565162        1.2910422890
 H         -6.6340235188        2.4928560854        0.1983827096
 H         -5.3889750685        4.6298835432        0.1630617272
 H         -2.9331924605        4.6013430267       -0.1670566559
 H         -1.7661769178        2.4765551436       -0.5096535239
