  72
       -113.91352310
 C         -2.2242428911        0.0425399332       -3.1956522422
 C         -3.1291524787        0.0186879721       -2.2104343961
 C         -2.7770015386        0.0061988166       -0.7418258075
 C         -1.3073062079        0.0066563818       -0.4870905180
 C         -0.4159280743        0.0254680422       -1.4880280807
 C         -0.8264276847        0.0492541742       -2.8989313524
 C          0.2925537608        0.0721201419       -3.6668943275
 C          1.4521079597        0.0613965886       -2.7941306392
 C          1.0207036142        0.0318953924       -1.4799752865
 C          1.9132389638        0.0058188210       -0.2798933472
 C          3.3474551326        0.0241648096       -0.7157815131
 C          4.4884203076        0.0128098834        0.0395611623
 C          4.7079572021       -0.0173643980        1.4419353825
 C          5.9807116514       -0.0201862857        1.9087881392
 C          7.0991827274        0.0056141255        1.0230573110
 C          6.9434283252        0.0340082674       -0.3252612231
 C          5.6356911612        0.0391212120       -0.8717995603
 C          5.1778745733        0.0662955415       -2.1675637704
 C          3.7507003270        0.0579567793       -2.1227911972
 C          2.8281712087        0.0758726512       -3.1313774510
 C          1.6380938487       -1.3093753161        0.4314088158
 C          1.9474758137       -2.4723907619       -0.2703313836
 C          1.7068565816       -3.7241508577        0.2583636553
 C          1.1446448153       -3.8411933483        1.5206809595
 C          0.8355193393       -2.7033608192        2.2333847824
 C          1.0781327938       -1.4415968543        1.6931407578
 S          0.6103514623       -0.0829876482        2.7179362337
 C          1.0665342741        1.3344649213        1.7700107014
 C          0.8138561902        2.5622568403        2.3792207951
 C          1.1118141304        3.7403065937        1.7298838311
 C          1.6725131364        3.6979730923        0.4623324082
 C          1.9236495346        2.4793990967       -0.1346451672
 C          1.6259216779        1.2768538469        0.5024450341
 C         -3.3800209007       -1.2519229345       -0.1287182082
 C         -2.5800541271       -2.3584828142        0.1332236055
 C         -3.1202015830       -3.5273507224        0.6370710425
 C         -4.4807905153       -3.6145696742        0.8811156106
 C         -5.2906554045       -2.5254794700        0.6290181974
 C         -4.7422140754       -1.3504599787        0.1299728325
 S         -5.8459038756        0.0005543206       -0.1594638689
 C         -4.7456134233        1.3523330358        0.1387522774
 C         -5.2980538373        2.5240987421        0.6410276993
 C         -4.4914655728        3.6142070029        0.8991389811
 C         -3.1298793183        3.5307769456        0.6592936105
 C         -2.5855358627        2.3650322961        0.1526260629
 C         -3.3825913370        1.2584025892       -0.1173839583
 H         -2.5362341796        0.0548051373       -4.2303511885
 H         -4.1860820801        0.0116842543       -2.4312225412
 H         -1.0142764345       -0.0059886586        0.5525487073
 H          0.3446740092        0.0945974902       -4.7400405190
 H          3.8628379392       -0.0369675947        2.1151727269
 H          6.1726386586       -0.0421969599        2.9719165534
 H          8.0895224654        0.0007378124        1.4564592222
 H          7.7959607497        0.0536969967       -0.9893010774
 H          5.7667259711        0.0898008533       -3.0648609309
 H          3.1289081261        0.1004142161       -4.1699085561
 H          2.3860646517       -2.3798122387       -1.2530085973
 H          1.9552782992       -4.6058345403       -0.3123516687
 H          0.9499883404       -4.8136293000        1.9468160638
 H          0.3976264812       -2.7682830007        3.2183468222
 H          0.3771526391        2.5691227694        3.3667658608
 H          0.9093879901        4.6859356676        2.2093668150
 H          1.9119208199        4.6119451967       -0.0593797764
 H          2.3609971612        2.4447360913       -1.1216014670
 H         -1.5209485169       -2.3114914289       -0.0745668744
 H         -2.4744789878       -4.3699788065        0.8312197168
 H         -4.9101565090       -4.5255525583        1.2691584297
 H         -6.3530607028       -2.5691006183        0.8143202250
 H         -6.3609997656        2.5643917579        0.8239152495
 H         -4.9242676774        4.5232108879        1.2879688235
 H         -2.4868030032        4.3742802680        0.8582324954
 H         -1.5255906449        2.3206163497       -0.0511085922
