  89
       -135.01593827
 C         -2.6376087898       -5.9866090670       -1.8165306113
 C         -3.4479539338       -5.9566141639       -0.6934581945
 C         -3.7928000632       -4.7531236042       -0.1102754778
 C         -3.3360326849       -3.5516151091       -0.6521685130
 N         -3.6859473013       -2.3333719229       -0.0638736294
 C         -4.9534071797       -2.1697090894        0.5093453591
 C         -6.0834285421       -2.7152508218       -0.0979869686
 C         -7.3306231869       -2.5404686251        0.4697811127
 C         -7.4734656393       -1.8166513382        1.6421331717
 C         -6.3534941919       -1.2746000189        2.2506850980
 C         -5.1018876177       -1.4516613845        1.6953888718
 C         -2.7865453061       -1.2638123205       -0.0546106019
 C         -1.4182789836       -1.4855956655        0.0863688529
 C         -0.5326573082       -0.4146864454        0.0949765925
 C          0.9149850809       -0.6432984914        0.2026624817
 C          1.5217134176       -1.6869743320       -0.4946396722
 C          2.8885622596       -1.8626254430       -0.4507244978
 C          3.6893552311       -0.9971580689        0.2936216641
 C          5.1298327694       -1.1957464421        0.2859067975
 N          5.6928937738       -2.3717910880        0.2251259345
 C          7.0414293381       -2.1521883949        0.2687185462
 C          8.1022478396       -3.0506799463        0.2275259764
 C          9.3798886780       -2.5347355744        0.2661748289
 C          9.6134563540       -1.1595056910        0.3342258907
 C          8.5762286055       -0.2496322175        0.3784947097
 C          7.2888714901       -0.7617041539        0.3606519059
 N          6.0474858609       -0.1664192398        0.3701240881
 C          5.8029136548        1.2152833987        0.3428793281
 C          4.9702750063        1.7588242495       -0.6310277472
 C          4.7332567109        3.1201448789       -0.6488867995
 C          5.3339088444        3.9465830028        0.2871472001
 C          6.1714931614        3.4067372556        1.2485125484
 C          6.4056572900        2.0438968752        1.2832181880
 C          3.0819459678        0.0151299857        1.0349526375
 C          1.7148657839        0.1903116681        0.9816930213
 C         -1.0187399347        0.8842702159       -0.0048729093
 C         -2.3839041735        1.1156387822       -0.1544746336
 N         -2.8774636806        2.4187237275       -0.2711479525
 C         -4.1215923155        2.7358565458        0.2882160146
 C         -4.4988077063        2.1993715621        1.5188155242
 C         -5.7331323675        2.4982294355        2.0603764063
 C         -6.6052679383        3.3430186054        1.3939426289
 C         -6.2312059941        3.8882665975        0.1767453501
 C         -5.0023931789        3.5869617844       -0.3777520690
 C         -2.1420685359        3.3985403644       -0.9433071010
 C         -1.3779751838        3.0720373446       -2.0641098208
 C         -0.6444915869        4.0443925677       -2.7151041282
 C         -0.6666763336        5.3565564626       -2.2716401704
 C         -1.4309514153        5.6887744187       -1.1650992977
 C         -2.1596273002        4.7216360483       -0.5009797707
 C         -3.2607278014        0.0365479710       -0.1968819306
 C         -2.5273663388       -3.5877691093       -1.7883985814
 C         -2.1794465286       -4.7968175588       -2.3581257536
 H         -2.3670516962       -6.9291754136       -2.2671431000
 H         -3.8075287183       -6.8787270576       -0.2612989333
 H         -4.4156929401       -4.7340164328        0.7718340283
 H         -5.9748339250       -3.2718518886       -1.0172910744
 H         -8.1985401208       -2.9657221402       -0.0121084641
 H         -8.4502844951       -1.6785565049        2.0797247873
 H         -6.4541004851       -0.7191795818        3.1712224747
 H         -4.2274299010       -1.0398978784        2.1762021111
 H         -1.0504901388       -2.4916637507        0.2126059361
 H          0.9157472492       -2.3475464598       -1.0970287579
 H          3.3633539802       -2.6616695435       -0.9981515055
 H          7.9171274586       -4.1106168651        0.1619174934
 H         10.2257168581       -3.2053798361        0.2356896981
 H         10.6315067549       -0.7997202277        0.3505053477
 H          8.7617366788        0.8135197244        0.4164497610
 H          4.5119438786        1.1100353386       -1.3622931052
 H          4.0814666742        3.5377942525       -1.4015142988
 H          5.1506585280        5.0100759794        0.2657540072
 H          6.6415393694        4.0472865739        1.9797643993
 H          7.0404679225        1.6136463131        2.0436545363
 H          3.6764015905        0.6593639391        1.6652946466
 H          1.2564583521        0.9740804262        1.5663794955
 H         -0.3345265320        1.7180887049        0.0092577003
 H         -3.8143773856        1.5512927254        2.0451162168
 H         -6.0120544633        2.0766696774        3.0145233998
 H         -7.5684466146        3.5766610180        1.8209090514
 H         -6.9053585483        4.5467866622       -0.3508045314
 H         -4.7166318875        4.0049165458       -1.3319268135
 H         -1.3661021080        2.0525265391       -2.4199680925
 H         -0.0570021414        3.7756922102       -3.5808786668
 H         -0.0946540430        6.1141950606       -2.7850456622
 H         -1.4538347418        6.7085229357       -0.8100452399
 H         -2.7452678720        4.9823089412        0.3682791742
 H         -4.3166686669        0.2089048936       -0.3386752426
 H         -2.1798395803       -2.6615361992       -2.2217713537
 H         -1.5530290323       -4.8094337026       -3.2380715377
