  67
  -107.183089313000       0.278284297661222      !
 O          4.7759775570       -1.4835590184        0.3259442347
 P          3.4924949596       -0.8385279093        0.0044773836
 C          2.0497728304       -1.9298002734        0.2510870182
 C          1.4707965110       -2.6211897050       -0.7993567181
 C          0.4328531458       -3.5016519111       -0.5494594719
 C         -0.0139510537       -3.6978175222        0.7456509557
 C          0.5695121105       -3.0085066191        1.7959117768
 C          1.6045154132       -2.1259859694        1.5503151028
 C          3.3913700446       -0.2249799244       -1.7093319255
 C          4.5778195498       -0.1621891004       -2.4267097164
 C          4.5711118461        0.3185297244       -3.7241408487
 C          3.3823975661        0.7420295859       -4.2957470474
 C          2.2002430951        0.6812446838       -3.5734874531
 C          2.1977037554        0.2035237275       -2.2751433816
 C          3.1626380962        0.6223018422        1.0183708863
 C          4.2432449755        1.2717483327        1.7141833910
 C          4.0262474513        2.4033894680        2.4886764202
 C          2.7781692359        2.9722683822        2.6196443019
 C          1.6739655543        2.3527473216        1.9308260762
 C          1.9268834799        1.1878944703        1.1375331856
 O          0.7747897341        0.7295447295        0.5745007189
 C         -0.2100037935        1.5641071812        0.9708189700
 C         -1.5323775014        1.4701901684        0.6309560330
 P         -2.0452817276        0.1298639796       -0.4805481132
 O         -1.0442574421       -0.2325872417       -1.4931528736
 C         -3.6215973447        0.6931302688       -1.1962351739
 C         -4.8163035900        0.6509277262       -0.4887893090
 C         -5.9797880576        1.1058133547       -1.0822886940
 C         -5.9525457660        1.6008066264       -2.3770400197
 C         -4.7621332449        1.6375686038       -3.0847732575
 C         -3.5966090325        1.1833956087       -2.4935615152
 C         -2.5317649415       -1.2598749608        0.5979478325
 C         -3.0719014280       -2.3673547151       -0.0422865039
 C         -3.4869389695       -3.4598445548        0.6953638243
 C         -3.3560633253       -3.4477366007        2.0759482491
 C         -2.8062344928       -2.3482038782        2.7132752331
 C         -2.3951923431       -1.2500472284        1.9764359735
 C         -2.4048884391        2.4516930495        1.1800406827
 C         -1.9211490730        3.4620954418        2.0233604379
 C         -0.6004441017        3.5648535381        2.3678704869
 C          0.3133382915        2.5954724273        1.8333930522
 H          1.8281616317       -2.4670424179       -1.8071366889
 H         -0.0271586571       -4.0359293822       -1.3673724702
 H         -0.8185457895       -4.3911567228        0.9402331790
 H          0.2181742284       -3.1632773736        2.8059466789
 H          2.0776085851       -1.5852444845        2.3598430805
 H          5.4886270590       -0.5082633757       -1.9601778492
 H          5.4917561219        0.3604098036       -4.2878415533
 H          3.3762114631        1.1189116392       -5.3082456814
 H          1.2721938528        1.0036455805       -4.0215203122
 H          1.2739767444        0.1437669747       -1.7203435897
 H          5.2233440674        0.8334752506        1.6174946101
 H          4.8666517447        2.8522610754        2.9977072881
 H          2.6108934709        3.8565496595        3.2109002082
 H         -4.8314254789        0.2532895596        0.5170741398
 H         -6.9111206346        1.0731139478       -0.5357824604
 H         -6.8640967295        1.9547279317       -2.8356172452
 H         -4.7442741277        2.0181938484       -4.0953770872
 H         -2.6559022304        1.1908467382       -3.0257720336
 H         -3.1589371215       -2.3539886615       -1.1206637393
 H         -3.9131095654       -4.3194884487        0.1989367930
 H         -3.6814802627       -4.2991434800        2.6558719806
 H         -2.7034082791       -2.3424170682        3.7888093267
 H         -1.9725784393       -0.3855419853        2.4697932881
 H         -3.4524085147        2.4163300056        0.9290800931
 H         -2.6279476660        4.1820566086        2.4100073290
 H         -0.2354770371        4.3444631044        3.0153329819
  67
  -107.183026708300       0.260445929151411      !
 O          5.0047351700       -1.1556210858       -0.2156673122
 P          3.6114845269       -0.6865813809       -0.2966541356
 C          2.3878159461       -1.9717304145        0.1307375910
 C          1.8593035159       -2.7934918489       -0.8516039221
 C          0.9897366726       -3.8106760431       -0.5012446616
 C          0.6579300564       -4.0105327174        0.8284570874
 C          1.1975075172       -3.1961733340        1.8116048663
 C          2.0664234765       -2.1780199669        1.4638081464
 C          3.1462405771       -0.0495117114       -1.9391222106
 C          4.1842929013        0.3070073028       -2.7890958479
 C          3.9026758479        0.8380016626       -4.0352086480
 C          2.5855453982        1.0157836397       -4.4264765071
 C          1.5513369503        0.6582092463       -3.5752959447
 C          1.8246890401        0.1262326277       -2.3275175894
 C          3.2695181310        0.6903283528        0.8345482640
 C          4.3346575227        1.3805820648        1.4619051914
 C          4.0969458640        2.4586480904        2.3258439021
 C          2.8307849224        2.9030779133        2.6044214165
 C          1.7269991274        2.2273066201        1.9935781675
 C          2.0002540219        1.1285516437        1.1027387144
 O          0.8519102245        0.6095450160        0.6192576999
 C         -0.1643934349        1.3289620910        1.1617906698
 C         -1.4979071165        1.1690070789        0.9004623195
 P         -2.0926918147       -0.1329447262       -0.1937191143
 O         -1.0509650082       -0.8833132538       -0.9078456208
 C         -3.2793348965        0.6680627325       -1.3272408243
 C         -4.2152652717       -0.1374721046       -1.9606719783
 C         -5.0752164803        0.4072917072       -2.8966677143
 C         -4.9944859902        1.7565098573       -3.2045641803
 C         -4.0491548691        2.5570014543       -2.5847270807
 C         -3.1865191378        2.0139535325       -1.6479686514
 C         -3.0963138955       -1.1809531338        0.9107904769
 C         -2.4657030961       -2.3113636651        1.4128506317
 C         -3.1347530362       -3.1410712906        2.2932711109
 C         -4.4308154617       -2.8358399250        2.6795781912
 C         -5.0576539102       -1.7043623531        2.1814606836
 C         -4.3924565293       -0.8701249836        1.3011705339
 C         -2.4030829921        2.0482243461        1.6067979947
 C         -1.9313626261        3.0324546546        2.4622167282
 C         -0.5875817306        3.2102978191        2.7094186182
 C          0.3438359036        2.3398448220        2.0363202211
 H          2.1260140226       -2.6297802035       -1.8860601693
 H          0.5670934478       -4.4454106845       -1.2658615525
 H         -0.0206385491       -4.8066832776        1.1001244138
 H          0.9381310097       -3.3523540291        2.8493573937
 H          2.4974991691       -1.5379611102        2.2222381296
 H          5.2023053129        0.1482599760       -2.4638486952
 H          4.7093193839        1.1115809409       -4.6999257139
 H          2.3641768260        1.4303125588       -5.3993579909
 H          0.5238463622        0.7888150305       -3.8825433316
 H          1.0179522723       -0.1636237278       -1.6725201561
 H          5.3378611444        1.0402965271        1.2608710654
 H          4.9451635754        2.9491969905        2.7804129326
 H          2.6500945525        3.7333541658        3.2669519805
 H         -4.2582123567       -1.1895560494       -1.7104696503
 H         -5.8065229515       -0.2176319087       -3.3877106154
 H         -5.6667809683        2.1835353314       -3.9339786521
 H         -3.9818747635        3.6064359383       -2.8325695839
 H         -2.4409759341        2.6293597780       -1.1624707926
 H         -1.4580775538       -2.5294458984        1.0878078743
 H         -2.6479499476       -4.0248980302        2.6792753070
 H         -4.9551054846       -3.4815607231        3.3683873098
 H         -6.0696905221       -1.4718160921        2.4794655249
 H         -4.8857163242        0.0047503112        0.9011634543
 H         -3.4611564687        1.9187685292        1.4498858604
 H         -2.6472682464        3.6706136224        2.9598797270
 H         -0.2232470269        3.9620470298        3.3884277993
  67
  -107.182404077200       0.134764694756948      !
 O          5.0175113077       -1.1438846748       -0.1194516677
 P          3.6232678470       -0.6886406153       -0.2474326766
 C          2.4060140084       -1.9756426840        0.1915546633
 C          1.8899562284       -2.8209028033       -0.7773010319
 C          1.0423374103       -3.8504410643       -0.4088154884
 C          0.7192377043       -4.0379022046        0.9251335788
 C          1.2429718025       -3.1972068708        1.8945489814
 C          2.0904683302       -2.1675637660        1.5284616257
 C          3.1935529514       -0.1097292017       -1.9197380842
 C          4.2482276940        0.1807510152       -2.7742151717
 C          3.9910902909        0.6531935036       -4.0489134253
 C          2.6821774981        0.8372063160       -4.4643948443
 C          1.6315416218        0.5457001850       -3.6082439142
 C          1.8803197541        0.0737256161       -2.3315233229
 C          3.2476315979        0.7102514427        0.8461559683
 C          4.3051620397        1.4088075782        1.4767731660
 C          4.0595581338        2.4930863714        2.3305223682
 C          2.7901226429        2.9348125072        2.5963327994
 C          1.6940580246        2.2502892061        1.9823329051
 C          1.9745457962        1.1478144500        1.0973898019
 O          0.8288573531        0.6271679500        0.6077294382
 C         -0.1914995423        1.3494859245        1.1404987050
 C         -1.5229934896        1.2008784181        0.8624371381
 P         -2.1175043795       -0.0685250145       -0.2702229646
 O         -1.0800461231       -0.7468278881       -1.0588566220
 C         -3.3726238109        0.7534305375       -1.3116125158
 C         -4.3528961737       -0.0308802554       -1.9030017639
 C         -5.2702388795        0.5426756785       -2.7647069372
 C         -5.2037434871        1.8995072763       -3.0404126633
 C         -4.2138381117        2.6791599214       -2.4649008002
 C         -3.2936342880        2.1071329593       -1.6035464174
 C         -3.0433322598       -1.2015524852        0.8176265959
 C         -2.3776680660       -2.3580332361        1.2007918206
 C         -2.9868000117       -3.2512413135        2.0623978985
 C         -4.2571660939       -2.9843596270        2.5490494390
 C         -4.9188668090       -1.8267617480        2.1697287870
 C         -4.3138449268       -0.9290451178        1.3089993574
 C         -2.4316898566        2.0732803302        1.5737659740
 C         -1.9652227887        3.0525744289        2.4371022909
 C         -0.6226049861        3.2277000766        2.6922897947
 C          0.3109010448        2.3584851655        2.0203301255
 H          2.1494461633       -2.6667846971       -1.8148862709
 H          0.6311312988       -4.5059754543       -1.1621355674
 H          0.0604361315       -4.8455048047        1.2106685767
 H          0.9895967457       -3.3440431958        2.9348970833
 H          2.5138891874       -1.5089230618        2.2753384679
 H          5.2590336359        0.0182452843       -2.4291002671
 H          4.8103222534        0.8753761372       -4.7172541728
 H          2.4803357455        1.2054615952       -5.4598986274
 H          0.6102632717        0.6821726166       -3.9323160518
 H          1.0601043112       -0.1646774240       -1.6727211653
 H          5.3105834735        1.0685853042        1.2866455378
 H          4.9033247848        2.9897322314        2.7865970039
 H          2.6006650870        3.7693284424        3.2509795330
 H         -4.3862652817       -1.0893325856       -1.6794689637
 H         -6.0362835278       -0.0660344605       -3.2221951656
 H         -5.9220181314        2.3488077714       -3.7101593137
 H         -4.1578497733        3.7346992282       -2.6877496960
 H         -2.5131983226        2.7057463459       -1.1529484018
 H         -1.3911606731       -2.5452223574        0.8010517200
 H         -2.4729406657       -4.1550778906        2.3553152574
 H         -4.7342908451       -3.6797799891        3.2237493445
 H         -5.9111489903       -1.6239718725        2.5456169879
 H         -4.8341946304       -0.0325016833        1.0031438063
 H         -3.4890058993        1.9438088418        1.4120126117
 H         -2.6836840418        3.6867466455        2.9360884250
 H         -0.2607448354        3.9727110109        3.3798942446
  67
  -107.182224031500       0.111386576816048      !
 O          4.7763636656       -0.8468434720       -0.6913378567
 P          3.3707424738       -0.4105544733       -0.6968749447
 C          2.2113971516       -1.7641930545       -0.3230335908
 C          1.6158330628       -2.4847954319       -1.3444248915
 C          0.8539660616       -3.5989503089       -1.0369250010
 C          0.6890722333       -3.9841446372        0.2826736775
 C          1.2888641146       -3.2620355836        1.3005986766
 C          2.0592019084       -2.1550200757        0.9987532686
 C          2.8557710908        0.3097076410       -2.2899763298
 C          3.8172113794        0.4100653575       -3.2851592011
 C          3.4990922777        1.0025684640       -4.4941893487
 C          2.2256015214        1.5078653934       -4.6973245003
 C          1.2683123193        1.4118571723       -3.6983296106
 C          1.5766336211        0.8105237453       -2.4924570222
 C          3.0483381315        0.9197006168        0.4857999991
 C          4.1678720839        1.7576028791        0.8531771250
 C          4.0234546383        2.8267697554        1.7242661225
 C          2.8075302076        3.1452189288        2.2859947991
 C          1.6686455150        2.3242746048        1.9481528527
 C          1.8386733503        1.2378669602        1.0272874525
 O          0.6504075584        0.5874274017        0.8292085537
 C         -0.2568439708        1.1939091750        1.6291572421
 C         -1.5647946549        0.8300196391        1.7834207712
 P         -2.1058595409       -0.6893301811        0.9425836625
 O         -1.3771531478       -1.8871346565        1.3753562614
 C         -1.9596657577       -0.3305181371       -0.8344156108
 C         -1.6938255986       -1.4076220423       -1.6664427194
 C         -1.6395518190       -1.2281058132       -3.0366259822
 C         -1.8708503435        0.0265192432       -3.5759865731
 C         -2.1293000892        1.1055282327       -2.7444208324
 C         -2.1666084948        0.9322900066       -1.3726833398
 C         -3.8975530743       -0.7941175444        1.2454879717
 C         -4.3517110649       -1.8989306635        1.9507866801
 C         -5.7014274905       -2.0437928314        2.2191073783
 C         -6.5974902294       -1.0832954703        1.7798031769
 C         -6.1456836644        0.0183202164        1.0690173814
 C         -4.7977680737        0.1649526987        0.7982730054
 C         -2.3478805538        1.6051909788        2.6756355349
 C         -1.7964944179        2.7044130398        3.3566474620
 C         -0.4877423758        3.0727687518        3.2175023491
 C          0.3412888383        2.3030395546        2.3348983217
 H          1.7481290019       -2.1711648696       -2.3714765836
 H          0.3903600433       -4.1675629986       -1.8310016571
 H          0.0869188672       -4.8482979809        0.5204505565
 H          1.1530320573       -3.5606176939        2.3288051741
 H          2.5465910558       -1.5870648565        1.7801638782
 H          4.8033074445        0.0123234487       -3.0942032051
 H          4.2433141277        1.0741838335       -5.2733313602
 H          1.9763561554        1.9807773477       -5.6358871308
 H          0.2781727812        1.8100362112       -3.8597607012
 H          0.8330962938        0.7206169987       -1.7138585162
 H          5.1238919283        1.5051944853        0.4238927062
 H          4.8916898067        3.4219995495        1.9662035466
 H          2.6848855691        3.9722058049        2.9642654426
 H         -1.5236264242       -2.3743677446       -1.2159130683
 H         -1.4274029123       -2.0648940975       -3.6857636555
 H         -1.8452031698        0.1657788809       -4.6470657967
 H         -2.3050776163        2.0852535217       -3.1663903913
 H         -2.3468057451        1.7757391324       -0.7194570490
 H         -3.6297196584       -2.6326119516        2.2798718349
 H         -6.0548718778       -2.9028541273        2.7700657703
 H         -7.6515863417       -1.1919770297        1.9887314767
 H         -6.8477106208        0.7641518356        0.7250372858
 H         -4.4432967608        1.0198594461        0.2408532664
 H         -3.3790513049        1.3332276232        2.8363996342
 H         -2.4399678410        3.2654389853        4.0187310369
 H         -0.0680234102        3.9098993810        3.7499545110
  67
  -107.182182930100       0.106645850381430      !
 O          4.9744799372       -1.0920171074       -0.4673843074
 P          3.5751044019       -0.6371127769       -0.4135879747
 C          2.3892118925       -1.9416612736        0.0645229782
 C          1.8348966946       -2.7593784164       -0.9069461740
 C          0.9558699349       -3.7622430849       -0.5407470429
 C          0.6410284364       -3.9524120285        0.7940296981
 C          1.2135032165       -3.1486942357        1.7661402021
 C          2.0930069711       -2.1446495996        1.4033543292
 C          2.9631563005        0.0568449796       -1.9866458895
 C          3.9204490324        0.5473158714       -2.8646665924
 C          3.5273418515        1.1483346893       -4.0471509053
 C          2.1795769999        1.2642106320       -4.3471470666
 C          1.2260823287        0.7722151225       -3.4693886435
 C          1.6118347016        0.1679060614       -2.2857453204
 C          3.3067838355        0.7108865035        0.7694530177
 C          4.3890665233        1.4249903626        1.3453404752
 C          4.1659255170        2.4939282037        2.2225276466
 C          2.9046510434        2.9088662246        2.5671292957
 C          1.7850126479        2.2113324965        2.0073456144
 C          2.0454622150        1.1215327836        1.1052843693
 O          0.8913061378        0.5745278609        0.6682275600
 C         -0.1176764792        1.2675069033        1.2527324707
 C         -1.4548203035        1.0608150698        1.0524279720
 P         -2.0333108246       -0.2793026984       -0.0071675764
 O         -0.9804317698       -1.1527522907       -0.5435920875
 C         -3.0044626081        0.5099437832       -1.3376739475
 C         -3.9045672014       -0.2777885917       -2.0415163681
 C         -4.5763254975        0.2475228835       -3.1301965743
 C         -4.3405870815        1.5569367269       -3.5201724741
 C         -3.4297982010        2.3375187939       -2.8273611248
 C         -2.7568542053        1.8146843005       -1.7361179933
 C         -3.2320126462       -1.1761668993        1.0308421226
 C         -2.7477168522       -2.3047525243        1.6788874662
 C         -3.5756943571       -3.0277389460        2.5175070046
 C         -4.8855113718       -2.6180757559        2.7138826689
 C         -5.3679863886       -1.4911486610        2.0673587222
 C         -4.5434407628       -0.7643569256        1.2270460834
 C         -2.3536695605        1.9339338529        1.7673693509
 C         -1.8726347731        2.9363868625        2.6000290996
 C         -0.5271831866        3.1482343101        2.8002937370
 C          0.4021794944        2.2969317891        2.1017569054
 H          2.0855479839       -2.5990544012       -1.9464590669
 H          0.5085705270       -4.3890455857       -1.2977426721
 H         -0.0510556050       -4.7326815754        1.0779292350
 H          0.9718823411       -3.3000926814        2.8091419599
 H          2.5471151668       -1.5127197600        2.1553683134
 H          4.9652820274        0.4378185608       -2.6117685213
 H          4.2714832034        1.5264406167       -4.7331291498
 H          1.8717506409        1.7350259501       -5.2696047846
 H          0.1744754815        0.8540891014       -3.7053115462
 H          0.8685281530       -0.2269164396       -1.6110920661
 H          5.3892729562        1.1114561470        1.0926298038
 H          5.0231057876        3.0049460069        2.6360599324
 H          2.7399689950        3.7327861559        3.2415460063
 H         -4.0677077621       -1.3006746011       -1.7261819815
 H         -5.2805812930       -0.3624947686       -3.6771328943
 H         -4.8645872873        1.9678348914       -4.3706035948
 H         -3.2406925244        3.3549359321       -3.1383673200
 H         -2.0395590019        2.4134066966       -1.1904939640
 H         -1.7245069591       -2.6042240331        1.4977677492
 H         -3.2029539274       -3.9093220139        3.0183128639
 H         -5.5339046693       -3.1799013034        3.3699781053
 H         -6.3912233127       -1.1786145364        2.2169766415
 H         -4.9227341225        0.1054418534        0.7082283040
 H         -3.4137435658        1.7869239830        1.6431001971
 H         -2.5860633133        3.5653440437        3.1128068468
 H         -0.1591346683        3.9196403865        3.4550590355
  67
  -107.181494745900       5.148448833771159E-002 !
 O          4.9529189862       -0.9121482597       -0.6842229305
 P          3.5411907463       -0.5299590158       -0.5146737643
 C          2.4569202138       -1.8929180946        0.0383894214
 C          1.9660239523       -2.7783007795       -0.9081607965
 C          1.1422570992       -3.8168240534       -0.5155622872
 C          0.8175036217       -3.9724261371        0.8212238298
 C          1.3311591864       -3.1035189456        1.7683954405
 C          2.1578655522       -2.0644390352        1.3801907549
 C          2.7672156713        0.1173228962       -2.0380189175
 C          3.6199571929        0.6944689991       -2.9694437809
 C          3.1014567100        1.2585119033       -4.1212655713
 C          1.7326712050        1.2514297241       -4.3368658794
 C          0.8837897150        0.6736588271       -3.4056792721
 C          1.3956172145        0.1058820365       -2.2520777428
 C          3.2969000226        0.8084379245        0.6785651264
 C          4.3932137408        1.5558383287        1.2125422484
 C          4.1821326897        2.6005195045        2.1113866723
 C          2.9247140979        2.9714423372        2.5265812618
 C          1.7970445674        2.2408070123        2.0133926221
 C          2.0457341988        1.1799676909        1.0814141509
 O          0.8857081910        0.5949769107        0.6963037145
 C         -0.1091508568        1.2257929160        1.3607513166
 C         -1.4450904217        0.9526475619        1.2539925461
 P         -1.9923095803       -0.4004018563        0.1830407720
 O         -0.9473467597       -1.3767448107       -0.1567237647
 C         -2.6952907282        0.3884715607       -1.3075994060
 C         -3.4978621165       -0.3912879646       -2.1291680096
 C         -3.9696251909        0.1229610681       -3.3228113742
 C         -3.6305658154        1.4133754763       -3.7001295268
 C         -2.8186199460        2.1864931516       -2.8868472411
 C         -2.3477471756        1.6750248280       -1.6891979045
 C         -3.3964278211       -1.1529067718        1.0621262565
 C         -3.1212396080       -2.3068064882        1.7829001756
 C         -4.1262596856       -2.9295046663        2.5003246853
 C         -5.4054234486       -2.3960667973        2.4982808453
 C         -5.6812197027       -1.2461962660        1.7751810258
 C         -4.6786376587       -0.6200420454        1.0561852004
 C         -2.3290157862        1.7695093902        2.0296706103
 C         -1.8379826062        2.7871591087        2.8506722623
 C         -0.4985830057        3.0595904091        2.9685190445
 C          0.4223870327        2.2663093777        2.1995985666
 H          2.2225928740       -2.6391469656       -1.9499369114
 H          0.7438257074       -4.4966840810       -1.2540385512
 H          0.1622618302       -4.7759415516        1.1255260233
 H          1.0833326893       -3.2287371144        2.8132059468
 H          2.5636099898       -1.3818902646        2.1151015447
 H          4.6843230260        0.6782024063       -2.7833730103
 H          3.7644491507        1.7025053456       -4.8497191523
 H          1.3263930993        1.6931216809       -5.2352690701
 H         -0.1835913481        0.6609750220       -3.5759885659
 H          0.7343976229       -0.3537092659       -1.5341200243
 H          5.3863630652        1.2747192529        0.9012784604
 H          5.0411066570        3.1356196411        2.4894384697
 H          2.7678698357        3.7822455911        3.2179937217
 H         -3.7417447680       -1.3998837577       -1.8212021817
 H         -4.5969161574       -0.4809399555       -3.9618549766
 H         -3.9964650111        1.8151370229       -4.6335843720
 H         -2.5481766117        3.1887305200       -3.1863091041
 H         -1.7101116958        2.2704567009       -1.0494860411
 H         -2.1158550701       -2.7041904456        1.7552662601
 H         -3.9151817607       -3.8289921119        3.0598675920
 H         -6.1922654037       -2.8799618503        3.0580046758
 H         -6.6815160010       -0.8380878866        1.7699235297
 H         -4.8918337897        0.2690336407        0.4778486641
 H         -3.3881331326        1.5773203606        1.9795079501
 H         -2.5479636687        3.3735333509        3.4159324467
 H         -0.1263234910        3.8406120211        3.6098670512
  67
  -107.181300068600       4.189950656466553E-002 !
 O          4.7097717057       -1.4313859910        0.4432911464
 P          3.3158608696       -0.9974612517        0.2569413126
 C          2.1501362660       -2.3036275062        0.7751690110
 C          1.9387533430       -3.3753137752       -0.0790649123
 C          1.2565928906       -4.4904311691        0.3715793150
 C          0.7941329644       -4.5362371450        1.6769872625
 C          0.9929201615       -3.4596170719        2.5247673016
 C          1.6741542449       -2.3419211032        2.0761055387
 C          2.9212993120       -0.5839408909       -1.4700751108
 C          1.6245463840       -0.5447283156       -1.9601186577
 C          1.4088379659       -0.1908728304       -3.2799610583
 C          2.4799159442        0.1185895046       -4.1028621525
 C          3.7752318532        0.0729026335       -3.6119135874
 C          3.9969051954       -0.2742720304       -2.2917735490
 C          2.9349082287        0.4755474139        1.2374537488
 C          4.0012173276        1.0038415669        2.0570697093
 C          3.8393753520        2.1493490854        2.8236676891
 C          2.6574811392        2.8529271710        2.8314101389
 C          1.5734630820        2.3628125602        2.0126752055
 C          1.7619348198        1.1719197232        1.2330066354
 O          0.6248178643        0.8705158659        0.5388693812
 C         -0.2721450342        1.8464869983        0.8231977567
 C         -1.5327574688        1.9671446401        0.3134433822
 P         -2.0821054473        0.8271266044       -0.9927961354
 O         -1.3970651269        1.0307351879       -2.2762079826
 C         -3.8820926881        1.0744609775       -1.0995254351
 C         -4.3907639264        1.5456378000       -2.3008063122
 C         -5.7515625633        1.7524264851       -2.4435897887
 C         -6.6031842629        1.4843587225       -1.3846288262
 C         -6.0961636763        1.0080019547       -0.1848527509
 C         -4.7371104323        0.8007394012       -0.0393630753
 C         -1.9213605441       -0.8500388346       -0.3068092954
 C         -1.7966581901       -1.8847050623       -1.2235865668
 C         -1.8048846342       -3.1981130208       -0.7924018332
 C         -1.9459404356       -3.4767378870        0.5569161297
 C         -2.0424919463       -2.4445713059        1.4760771292
 C         -2.0311153680       -1.1298765019        1.0478701584
 C         -2.3013764745        3.0806527331        0.7476091484
 C         -1.7889865358        4.0043477170        1.6723190101
 C         -0.5301099205        3.8936201850        2.1929653754
 C          0.2839853987        2.7913332483        1.7636522119
 H          2.3260741539       -3.3308578464       -1.0880971307
 H          1.0989091667       -5.3304531986       -0.2890297299
 H          0.2855520528       -5.4182229395        2.0379699828
 H          0.6327409693       -3.4979972429        3.5427213075
 H          1.8543823577       -1.5030920108        2.7349780167
 H          0.7918175964       -0.7850546100       -1.3170763178
 H          0.3989833409       -0.1381957955       -3.6550661335
 H          2.3046208970        0.3985364973       -5.1314065140
 H          4.6098702568        0.3121858782       -4.2542660946
 H          4.9955955718       -0.3218091533       -1.8830506414
 H          4.9314688816        0.4594870807        2.0466378593
 H          4.6692188422        2.4961753726        3.4216634942
 H          2.5220095013        3.7492027479        3.4122788290
 H         -3.7028901412        1.7448949156       -3.1099056788
 H         -6.1479421826        2.1217783625       -3.3779299424
 H         -7.6657675742        1.6446920165       -1.4927449920
 H         -6.7638174701        0.7975462616        0.6378942285
 H         -4.3363769000        0.4273458905        0.8920343114
 H         -1.6979644890       -1.6395870810       -2.2718436617
 H         -1.7145354780       -4.0035711259       -1.5062220888
 H         -1.9811871775       -4.5014288029        0.8942799134
 H         -2.1362626655       -2.6669384747        2.5290538556
 H         -2.1043472373       -0.3207161908        1.7617077466
 H         -3.2937211106        3.2120935383        0.3459742188
 H         -2.4193254309        4.8292885510        1.9705813254
 H         -0.1345379481        4.6067621432        2.8966340579
  67
  -107.180334905300       1.508865633056542E-002 !
 O          4.7296037644       -0.6635034652       -0.7993600370
 P          3.3096860284       -0.2822893879       -0.7106412739
 C          2.2566477136       -1.6818574698       -0.1996459378
 C          1.6685905244       -2.4954842188       -1.1528463231
 C          0.9887164704       -3.6333174264       -0.7524726733
 C          0.8949560646       -3.9483145139        0.5919651474
 C          1.4879752470       -3.1335088469        1.5413111875
 C          2.1785839830       -2.0029451330        1.1468400815
 C          2.6540601848        0.3144149159       -2.3081149140
 C          3.2931782868       -0.1483428080       -3.4506112879
 C          2.8860951768        0.2892000992       -4.6979384485
 C          1.8577533062        1.2115898297       -4.8003736570
 C          1.2286862937        1.6817222398       -3.6590658113
 C          1.6138724632        1.2248144695       -2.4113547956
 C          3.0092641831        1.0486601500        0.4741727884
 C          4.1137403666        1.8931226499        0.8577357457
 C          3.9555831715        2.9191353968        1.7812418298
 C          2.7465693155        3.1771528529        2.3842997254
 C          1.6196213730        2.3456541379        2.0319987013
 C          1.8057266287        1.3050016991        1.0598215991
 O          0.6350181430        0.6324095064        0.8447786607
 C         -0.2795196906        1.1819660800        1.6789764685
 C         -1.5748817376        0.7762032188        1.8175316978
 P         -2.0544795682       -0.7106877118        0.8866460315
 O         -1.3187548134       -1.9135286488        1.2935670030
 C         -1.8297811476       -0.2641093206       -0.8624847504
 C         -1.4367589943       -1.2826019756       -1.7171769327
 C         -1.3020702387       -1.0384974785       -3.0717031038
 C         -1.5817296438        0.2208656619       -3.5748230344
 C         -1.9705781178        1.2409358720       -2.7203565945
 C         -2.0859719432        1.0050089803       -1.3628960418
 C         -3.8540247350       -0.8676036786        1.1087938284
 C         -4.3116450453       -2.0463765726        1.6794322731
 C         -5.6672299079       -2.2426168892        1.8751118907
 C         -6.5662817772       -1.2587474343        1.4982673853
 C         -6.1108090839       -0.0815706384        0.9242206681
 C         -4.7568552249        0.1163191251        0.7258203549
 C         -2.3743636580        1.4831820690        2.7546665499
 C         -1.8444935518        2.5580036811        3.4878420933
 C         -0.5476889577        2.9721576419        3.3567126212
 C          0.2972898507        2.2720165001        2.4292206018
 H          1.7387095758       -2.2330731163       -2.1999939651
 H          0.5292459783       -4.2730384277       -1.4931581216
 H          0.3537360562       -4.8293641454        0.9024317430
 H          1.4105852757       -3.3782238769        2.5898960216
 H          2.6590999232       -1.3652306101        1.8769230345
 H          4.1140329583       -0.8424628485       -3.3410045447
 H          3.3774256070       -0.0787221241       -5.5868169512
 H          1.5502059120        1.5709052172       -5.7715359272
 H          0.4390692246        2.4133465870       -3.7406593294
 H          1.1107688025        1.5783730051       -1.5243195589
 H          5.0684859639        1.6854575427        0.4026807249
 H          4.8132363097        3.5251451249        2.0342047721
 H          2.6211477336        3.9646540025        3.1077793334
 H         -1.2335176321       -2.2556688640       -1.2952169471
 H         -0.9889518607       -1.8293439858       -3.7376584447
 H         -1.4935677594        0.4099301631       -4.6346117486
 H         -2.1852752048        2.2242696226       -3.1145367549
 H         -2.3661938412        1.8053833630       -0.6913450354
 H         -3.5869615129       -2.7964174469        1.9619852925
 H         -6.0227695519       -3.1596637462        2.3214372922
 H         -7.6252370369       -1.4076470726        1.6499899126
 H         -6.8151977568        0.6821541455        0.6278719680
 H         -4.4006188133        1.0309008068        0.2746408372
 H         -3.3969174297        1.1755112040        2.9060726928
 H         -2.4953540186        3.0658240230        4.1848696491
 H         -0.1479068265        3.7925976622        3.9290262152
