  67
       -107.56846623
 O          3.9130738347        0.0199335535        2.2792320568
 P          2.8059486822        0.0352358075        1.3117916953
 C          1.4175909038       -1.0065677748        1.8698576352
 C          0.3263001746       -0.4780422642        2.5400079014
 C         -0.6387678414       -1.3274274844        3.0522779747
 C         -0.5115530965       -2.6979498154        2.8975833823
 C          0.5925503092       -3.2270571244        2.2481645213
 C          1.5618191818       -2.3802418376        1.7409742632
 C          3.3047538815       -0.5825451939       -0.3298771026
 C          2.5510911460       -0.3736725629       -1.4760531915
 C          3.0174679857       -0.8343274061       -2.6938261714
 C          4.2261195226       -1.5084609939       -2.7682035165
 C          4.9777459869       -1.7184598334       -1.6233658858
 C          4.5209280119       -1.2479844629       -0.4053989797
 C          2.1529104321        1.6989660490        1.0172390998
 C          3.0122184888        2.7841942745        1.4057542271
 C          2.6619579613        4.1155309946        1.1954043803
 C          1.4729730205        4.4609510093        0.6058356958
 C          0.5855011892        3.3984766984        0.2011674250
 C          0.9670590772        2.0303624611        0.4300272788
 O         -0.0111183868        1.1849090054       -0.0164211881
 C         -0.9995214097        1.9648982075       -0.5317034430
 C         -2.1842786217        1.5635134213       -1.0776684414
 P         -2.7988668569       -0.1359000456       -1.2511961318
 O         -3.9716631760       -0.1922891916       -2.1375008490
 C         -3.2073501637       -0.7053121129        0.4345747738
 C         -3.5008884035        0.1958466425        1.4458841014
 C         -3.9786117628       -0.2650168271        2.6609428552
 C         -4.1647297806       -1.6228073620        2.8636616595
 C         -3.8731769272       -2.5234226059        1.8512603478
 C         -3.4006444862       -2.0647658834        0.6354776672
 C         -1.4343473727       -1.1865352539       -1.8383992549
 C         -0.5432177447       -1.8193706327       -0.9848038842
 C          0.4134432945       -2.6696724137       -1.5098037806
 C          0.4901559475       -2.8775260163       -2.8774167360
 C         -0.3909338552       -2.2318386275       -3.7303269135
 C         -1.3567909254       -1.3900567444       -3.2098136371
 C         -3.0562066643        2.5898912649       -1.5624724779
 C         -2.7341605237        3.9460934614       -1.4637026411
 C         -1.5569185603        4.3644723770       -0.9054866034
 C         -0.6472974247        3.3603633945       -0.4177069418
 H          0.2378557074        0.5913120465        2.6674550994
 H         -1.4913891884       -0.9209099819        3.5738365357
 H         -1.2710891803       -3.3545362414        3.2947306024
 H          0.6982897256       -4.2970111449        2.1433846617
 H          2.4421391109       -2.7709739502        1.2476181751
 H          1.6042187373        0.1374885746       -1.4169338846
 H          2.4338498685       -0.6671674667       -3.5872083097
 H          4.5849600903       -1.8661090508       -3.7220872931
 H          5.9209238972       -2.2416779239       -1.6809500030
 H          5.0965901222       -1.3809023884        0.4995575480
 H          3.9423552844        2.5188869410        1.8818746509
 H          3.3472934797        4.8882903291        1.5103526691
 H          1.1855553348        5.4849942921        0.4389127084
 H         -3.3629433932        1.2550315961        1.2758482129
 H         -4.2145196373        0.4371723906        3.4477783629
 H         -4.5438616044       -1.9790909856        3.8103258724
 H         -4.0263819164       -3.5813998845        2.0064429307
 H         -3.1853586190       -2.7524569160       -0.1713019130
 H         -0.6062071541       -1.6528596764        0.0791758404
 H          1.1000174197       -3.1750617289       -0.8478733137
 H          1.2382985238       -3.5458421223       -3.2779641191
 H         -0.3312563988       -2.3929375244       -4.7967285343
 H         -2.0740504741       -0.8964948121       -3.8501209522
 H         -3.9814250768        2.2692324892       -2.0133332505
 H         -3.4364961513        4.6727157479       -1.8442596655
 H         -1.2906470778        5.4048107459       -0.8264962147
