  171
       -250.32372645
 C         -7.5359564372        4.9885590962       -2.0988874599
 C         -6.0281972890        5.1545540599       -2.3052322711
 C         -5.5003329397        6.1277115820       -1.2416944898
 C         -5.8043697011        5.7434589518       -3.7052783473
 C         -5.2766089399        3.8386363076       -2.1786967647
 C         -3.8936109485        3.8216196831       -2.3959008807
 C         -3.1290136890        2.6763055778       -2.2870803288
 C         -3.7627047140        1.4961903689       -1.9254876964
 C         -5.1606387955        1.4860976990       -1.7378246321
 C         -5.9079664859        2.6472218305       -1.8594791709
 C         -5.5288604012        0.1256123125       -1.4614546985
 C         -6.7486165036       -0.4737345118       -1.1868786900
 C         -6.7999489566       -1.8385709971       -0.9572169018
 C         -8.0945856033       -2.5781956397       -0.6676594017
 C         -7.9221211797       -3.4010462168        0.6182154329
 C         -9.2734126915       -1.6217476915       -0.4764229158
 C         -8.4091582214       -3.5116343891       -1.8456744456
 C         -5.6046726680       -2.5643960295       -0.9802529039
 C         -4.3752236649       -1.9860865183       -1.2230850563
 C         -4.3380269650       -0.6271090990       -1.4961554987
 N         -3.2691852455        0.2111157427       -1.7769927678
 C         -1.9395775106       -0.1791597622       -1.8827182214
 C         -1.6059582373       -1.3852955985       -2.5029943068
 C         -0.2940895108       -1.8102107280       -2.5483592329
 C          0.7145923404       -1.0188911503       -2.0110272088
 N          2.0679669352       -1.4457696786       -2.0152992156
 C          2.4816175031       -2.4340495804       -1.1365067842
 C          1.5515305096       -3.1393627853       -0.3677983661
 C          1.9614583196       -4.1344513723        0.4953209318
 C          3.3053519447       -4.4492618659        0.6123381531
 C          4.2342882198       -3.7396060697       -0.1275252070
 C          3.8426358366       -2.7340269544       -0.9970020615
 C          4.8894291222       -1.9095284680       -1.6964507968
 C          6.1134616709       -2.6914807719       -2.1131174932
 C          6.1830443135       -3.7979395348       -2.9304040942
 C          7.4310613114       -4.3402579675       -3.2089485291
 C          8.5830920195       -3.7751712949       -2.6835884513
 C          8.5186094902       -2.6586986322       -1.8645961243
 C          7.2765910648       -2.1170005525       -1.5781148393
 C          6.8967293069       -0.9807282869       -0.7516930753
 C          7.6730715403       -0.0646271571       -0.0582024470
 C          7.0085592374        0.9229036865        0.6536162732
 C          5.6068623820        0.9528712355        0.7101409042
 C          4.8307865072        0.0601738305       -0.0005920508
 C          5.4966251720       -0.8884947691       -0.7489886503
 C          5.1302776866        2.1013185126        1.5867675593
 C          6.4342084277        2.7903598628        1.9092176786
 C          6.6336602103        3.9437898719        2.6359537012
 C          7.9355455566        4.3796962993        2.8454519097
 C          9.0120671800        3.6645439876        2.3428959459
 C          8.8164748607        2.5017747708        1.6142516512
 C          7.5201635641        2.0651422719        1.3962220576
 C          4.4874577456        1.5384898259        2.8313858658
 C          5.2602986950        1.1335202292        3.9076315091
 C          4.6801520074        0.5790908727        5.0345569497
 C          3.3031235148        0.4332650377        5.0916275838
 C          2.5194543756        0.8254596289        4.0277304927
 C          3.0996526329        1.3678838550        2.8759604998
 N          2.2984565164        1.7609563449        1.8156624065
 C          0.9853249566        1.2312543641        1.7558709001
 C         -0.1533661858        2.0381743285        1.8564858511
 C         -1.4046317776        1.4793784710        1.7983288356
 C         -1.5700035991        0.0815959148        1.6852922911
 C         -2.8643745081       -0.4966857077        1.6950915379
 N         -3.9558244313        0.2651623510        1.6978809451
 C         -5.1398221945       -0.2729384422        1.8533685066
 C         -6.3027686568        0.5859286853        1.8370419440
 C         -6.1859099389        1.9190703892        1.4265433269
 C         -7.2917690790        2.7398637716        1.4126267983
 C         -8.5326801393        2.2565861234        1.8059810077
 C         -8.6536987500        0.9401757429        2.2277262951
 C         -7.5519536227        0.1100973965        2.2458963015
 N         -5.3059623835       -1.6124232130        2.0842965380
 C         -4.1965706891       -2.3351234779        2.0245336395
 C         -4.3613263226       -3.8030622778        2.3363839637
 C         -3.6406526830       -4.7356033648        1.3595835552
 C         -2.1247348852       -4.6526603777        1.4872848148
 C         -1.6895082753       -4.9535452227        2.9167479964
 C         -2.3555473466       -3.9685840650        3.8713766371
 C         -3.8726543711       -4.0695004901        3.7683013499
 N         -3.0024559880       -1.8624986468        1.7894367736
 C         -0.4121338227       -0.7222398308        1.6273767964
 C          0.8346762678       -0.1575599012        1.6486847217
 C          2.7796711538        2.6411270674        0.8615591207
 C          1.9241247317        3.2570981702       -0.0580974171
 C          2.4077773018        4.1734331357       -0.9691309491
 C          3.7533929148        4.5004585480       -0.9887990494
 C          4.6172812201        3.8587809762       -0.1186755938
 C          4.1528313406        2.9272024948        0.7940529423
 C          4.3125826548       -1.1375364834       -2.8628516228
 C          5.1527201851       -0.5966288818       -3.8228096810
 C          4.6563797937        0.1809408893       -4.8536337576
 C          3.2955104208        0.4276834032       -4.9259644483
 C          2.4431921358       -0.1053656538       -3.9817915810
 C          2.9377859927       -0.8908638083       -2.9362384031
 C          0.3967484948        0.2168555569       -1.4617327722
 C         -0.9172391049        0.6259691182       -1.3804669566
 H         -7.7550922611        4.5962031705       -1.1097182513
 H         -7.9592885236        4.3220022469       -2.8466545527
 H         -8.0248334869        5.9560807621       -2.1940560877
 H         -4.4411369314        6.3256812598       -1.3807752109
 H         -6.0354303761        7.0734440318       -1.2963286973
 H         -5.6397636684        5.7081879374       -0.2475181423
 H         -6.3681653194        6.6671761985       -3.8172545308
 H         -4.7557056922        5.9638359922       -3.8829583280
 H         -6.1388021975        5.0406563683       -4.4656822515
 H         -3.3897402913        4.7362990100       -2.6675871420
 H         -2.0725369544        2.7131606215       -2.5032910374
 H         -6.9703987864        2.5931933890       -1.7005245933
 H         -7.6302246076        0.1419720151       -1.1465478868
 H         -7.3326457371       -4.2957414784        0.4363088455
 H         -8.8910345569       -3.7121773360        1.0027505992
 H         -7.4134306993       -2.8014912630        1.3676330145
 H         -9.0668521553       -0.9245371397        0.3295843048
 H         -9.4784475898       -1.0656863941       -1.3884916267
 H        -10.1676283026       -2.1890771553       -0.2253037602
 H         -9.3099974288       -4.0855500042       -1.6388811155
 H         -7.5920750217       -4.2062995171       -2.0239435194
 H         -8.5682476971       -2.9341005882       -2.7541618892
 H         -5.6379654788       -3.6241114350       -0.7860161369
 H         -3.4761626212       -2.5796369618       -1.1695666489
 H         -2.3778867194       -1.9784541604       -2.9660062121
 H         -0.0429707711       -2.7521533507       -3.0138328597
 H          0.5044771714       -2.8982930910       -0.4432113328
 H          1.2249184826       -4.6657153654        1.0793465489
 H          3.6286631990       -5.2291244865        1.2842975488
 H          5.2868213952       -3.9585637568       -0.0260487788
 H          5.2854692930       -4.2363255714       -3.3423219260
 H          7.5050089259       -5.2110645131       -3.8432132559
 H          9.5433126928       -4.2118210545       -2.9156298501
 H          9.4191576596       -2.2229549159       -1.4579545178
 H          8.7512652968       -0.1083883029       -0.0845067188
 H          3.7523085355        0.1074079466        0.0129506536
 H          5.7945625338        4.4975442200        3.0318261892
 H          8.1112769283        5.2844388797        3.4080854226
 H         10.0162849112        4.0197967428        2.5213913924
 H          9.6588029183        1.9494232051        1.2250166238
 H          6.3320388072        1.2506104685        3.8596138222
 H          5.2978973744        0.2668599648        5.8621891835
 H          2.8361437749        0.0158697317        5.9709280550
 H          1.4475090192        0.7219393043        4.0810785370
 H         -0.0391666383        3.1023362455        2.0086966969
 H         -2.2894198853        2.0926082785        1.8743146086
 H         -5.2210490149        2.2836766339        1.1133901186
 H         -7.1917728099        3.7689290663        1.0970060898
 H         -9.3980075816        2.9029082490        1.7904154230
 H         -9.6165024639        0.5652831181        2.5463174917
 H         -7.6311675062       -0.9109688068        2.5823563337
 H         -5.4355787316       -4.0007604084        2.2936607323
 H         -3.9671300792       -5.7575318316        1.5725076515
 H         -3.9351077845       -4.4947468978        0.3386948667
 H         -1.6571516089       -5.3534968685        0.7901890672
 H         -1.8167228903       -3.6401057915        1.2292017905
 H         -0.6031620659       -4.8758312470        3.0036538546
 H         -1.9745491815       -5.9750603953        3.1825344961
 H         -2.0478115986       -2.9576491923        3.6029687455
 H         -2.0421717005       -4.1646942854        4.8993157311
 H         -4.3442267301       -3.3598651168        4.4518087044
 H         -4.1909332860       -5.0746914151        4.0558329601
 H         -0.5274798838       -1.7917021392        1.5663134777
 H          1.7171390147       -0.7803246301        1.5954491794
 H          0.8752627834        3.0142710478       -0.0593345145
 H          1.7262250679        4.6366897929       -1.6672203605
 H          4.1308685507        5.2268243887       -1.6914842038
 H          5.6758078230        4.0682698051       -0.1568013946
 H          6.2135944927       -0.7833827149       -3.7569969055
 H          5.3270197401        0.5930396611       -5.5914309128
 H          2.8933970136        1.0327045958       -5.7246646628
 H          1.3824015867        0.0781361854       -4.0510081638
 H          1.1884389550        0.8442355641       -1.0833667132
 H         -1.1636760269        1.5490445094       -0.8845088411
