94
 energy: -127.807984338999 gnorm: 0.000044717769 xtb: 6.7.1 (edcfbbe)
C           -9.29316342937413        0.35605412267512       -2.01436634698616
C           -7.94851430556990        0.11350799649635       -1.40146596609824
C           -7.25781261314555        1.15391134311423       -0.77656573893597
C           -6.01639506522727        0.95325595686754       -0.21768286184098
C           -5.41578826725572       -0.31156837327243       -0.26288016267916
N           -4.15136948810765       -0.51402851499140        0.29052901556001
C           -3.84058650307708       -1.72017841495715        0.91717064388146
C           -4.80074839192455       -2.41027937916067        1.66828661232038
C           -4.47355487942004       -3.58902911756390        2.29978273756913
C           -3.18669771094646       -4.12374203397131        2.21696102888641
C           -2.84997343941108       -5.41481056141886        2.89681543872116
C           -2.23542260746132       -3.43299785513087        1.46795481251503
C           -2.54809866142620       -2.25453700460883        0.82718013438066
C           -3.19142937925055        0.48570004327583        0.20701799793662
C           -3.07413216385955        1.28831292068536       -0.94447491301082
C           -2.11227035862737        2.25803740331839       -1.03209095444049
C           -1.21709163066086        2.51891406061015        0.03043217372442
C           -0.07531038018507        3.51051469038480       -0.07800259885967
C            1.06757772272060        2.52064862578561       -0.13907882478922
C            1.27129456820815        1.73581475277690       -1.29475397153538
C            2.21021824752598        0.74565606048249       -1.34804102464669
C            3.03237430808878        0.46931485044704       -0.22778763618965
N            3.99257607606561       -0.53179802760348       -0.27327380853666
C            3.72401925667203       -1.71701807679721       -0.95732527101979
C            2.42961382989735       -2.25431062591989       -0.96616657275862
C            2.16362263740796       -3.41853472918934       -1.65383774764530
C            3.16355191006669       -4.08940931481035       -2.35392280763707
C            2.88321849094116       -5.35785712289467       -3.09902311079750
C            4.45165157322540       -3.54730602568294       -2.34384710232728
C            4.73280695006456       -2.38464150996955       -1.66406393836555
C            5.21187391987147       -0.35668857536561        0.38065504010115
C            5.84805986672537       -1.43065013772949        1.01693971284418
C            7.04536751803477       -1.24102273383110        1.67158767503243
C            7.65219191078520        0.01264883224594        1.72330253732070
C            8.94291934259807        0.22279086587830        2.45272215810957
C            7.01184602734957        1.07976470028965        1.09027023181652
C            5.81627582463166        0.90638203282234        0.43116530107484
C            2.82979618851937        1.23310413020848        0.93789380390426
C            1.87137619406054        2.20829803232888        0.98332248877414
C           -0.14769362971502        4.39967963037811       -1.33097639024381
C            1.04149890620140        5.35441539786086       -1.40110127903997
C            1.06144269715871        6.28065318415186       -0.19186402244800
C            1.11522745380890        5.44678216430303        1.08184400415735
C           -0.05246539671682        4.46425000056443        1.13097409405803
C           -1.34944933111831        1.70997584185271        1.18047591328193
C           -2.29135439552474        0.72617256463488        1.27387990747732
C           -6.10172613065171       -1.35808316642894       -0.89216032041849
C           -7.34485970205178       -1.14128498541708       -1.44625233631306
H           -9.19213209271863        0.95402886479696       -2.92123632033670
H           -9.77758812512309       -0.58171344672712       -2.27491150789669
H           -9.93477690710843        0.90529839410461       -1.32670684747714
H           -7.71190894649024        2.13332361597274       -0.72377929641575
H           -5.49974141965708        1.76343858648305        0.27625910955134
H           -5.79605747722756       -2.00012313506348        1.75974418029457
H           -5.22500937202211       -4.10555200686751        2.88008864571838
H           -3.15797080810937       -6.25776664520085        2.27563136076482
H           -3.36929586966836       -5.49659140406557        3.84969215413054
H           -1.77912809553714       -5.49541518442247        3.06873500224425
H           -1.23421395634850       -3.83165521315238        1.38244004594034
H           -1.80587037230809       -1.73689568530637        0.23734433776153
H           -3.74553655786392        1.11419652797721       -1.77381948515496
H           -2.05711442830038        2.83816844880736       -1.93918829742436
H            0.66355708523939        1.91135667944446       -2.16964807297244
H            2.35557122110263        0.17798463027593       -2.25598911193727
H            1.64894187713939       -1.75350344959919       -0.41254073270508
H            1.16027740474431       -3.82089780779388       -1.64126110856838
H            3.48356252735615       -6.17487015900998       -2.69809337041792
H            3.14080001604702       -5.24617846008444       -4.15228928092221
H            1.83317802786651       -5.62932599782156       -3.02465147179950
H            5.23962209175753       -4.04810383331842       -2.88826992598672
H            5.73034800893001       -1.96984347770602       -1.68008079220797
H            5.38352648902897       -2.40584064624094        1.00030234698247
H            7.51884786788073       -2.08075675262958        2.16052673067414
H            9.59869866243306        0.88684894439138        1.89218954230994
H            9.45453780724587       -0.72218561423892        2.61880914738147
H            8.75496736459277        0.68385764936001        3.42388245208453
H            7.46959682999432        2.05867591227357        1.11078303362789
H            5.34041784273127        1.73764494732026       -0.06862914630191
H            3.42926480165543        1.02108601260222        1.81246897640104
H            1.74143872562763        2.74675697782285        1.90843610378504
H           -1.07396163075824        4.97897019501384       -1.29634924749046
H           -0.16156338166264        3.79913486580151       -2.23940702961677
H            0.98242909855726        5.94054268945885       -2.32168221866669
H            1.96617192834431        4.77247495344903       -1.43046239232625
H            1.92462268120028        6.94850548820282       -0.24157548038398
H            0.15873251412905        6.89723588440122       -0.19020362986818
H            1.07848912438525        6.09698648012051        1.95988367829930
H            2.05957632218784        4.89968927392304        1.10668554312711
H           -0.99134312273040        5.02549704711082        1.12007446759582
H           -0.02755072999909        3.91002886946027        2.06849320399310
H           -0.67968150159673        1.86119368073389        2.01358963020051
H           -2.37879183967790        0.13603234130122        2.17492946848984
H           -5.64120043266072       -2.33363378688606       -0.94966829437951
H           -7.85670872270164       -1.96045214425276       -1.93144841430777
