94
 energy: -127.806435058317 gnorm: 0.000057921695 xtb: 6.7.1 (edcfbbe)
C            2.96639759294794        3.29561318114206        3.73641712980529
C            2.60322202711168        1.97656186877123        3.12594792393195
C            1.46039459508852        1.82746878771006        2.34751059356749
C            1.13117239035096        0.61333415143235        1.78228854230876
C            1.94789268633289       -0.50399902162547        1.98081873403129
N            1.61912960340101       -1.73910526544985        1.41847305216895
C            2.62641892019613       -2.59397271777543        0.96403113712884
C            3.77135400355695       -2.08854788388838        0.34273259825682
C            4.74954590405432       -2.94600001044922       -0.11720913592749
C            4.62401067328096       -4.32530368089718        0.01994344664661
C            5.67653183631076       -5.25713202199624       -0.49821003943040
C            3.47902281521184       -4.82279931099475        0.63865330925586
C            2.49413128944312       -3.97861758552512        1.10481024910323
C            0.28467235450134       -2.07944191838142        1.25215587531121
C           -0.68364703751352       -1.70277581113196        2.21291261538906
C           -2.01221285168985       -1.87754404982621        1.97764245300759
C           -2.49236995792268       -2.39732929570128        0.73582377933719
C           -3.89765412500820       -2.12026697005872        0.24697165059970
C           -3.36129089391266       -0.83544460836341       -0.34039813652641
C           -2.75247908776054       -0.79888920576406       -1.63309654380452
C           -1.87709260748394        0.18252602126993       -1.98197483492890
C           -1.57099587823676        1.23919969012687       -1.09238142633382
N           -0.55127122437118        2.13514080958103       -1.37837677227362
C           -0.65014864093899        3.46898336155474       -0.97453703028155
C           -1.87248886930850        4.14201546528128       -1.05103262214130
C           -1.97324820222046        5.45265082334783       -0.63368009272387
C           -0.87030757268212        6.13676944515621       -0.12962689880021
C           -0.98053752885169        7.56811667662898        0.29884576709395
C            0.34491295295901        5.46024050571880       -0.05594143689657
C            0.46031978930461        4.14885508733274       -0.46636158046756
C            0.60675126832457        1.68002542834529       -2.01251645149112
C            1.08187132213554        0.38367738055312       -1.79250463969771
C            2.22146623430357       -0.05959280396582       -2.43039217031982
C            2.92675570854931        0.76125068281281       -3.30402716293313
C            4.16828616409802        0.28488439001957       -3.99409377639246
C            2.44593120064171        2.05124533078778       -3.52430823835459
C            1.30741676946329        2.50744903558120       -2.89677602949902
C           -2.32974740646140        1.33193991315139        0.09903529407041
C           -3.19432031993699        0.34127956542828        0.45271705148845
C           -4.45604052656716       -3.13246251439043       -0.75937716701699
C           -5.76476981224462       -2.63630131130780       -1.37010150377897
C           -6.81322183700642       -2.41092744996277       -0.28779297573942
C           -6.27077596678346       -1.43983068784855        0.75329931635601
C           -4.95834160319442       -1.95420295458611        1.34060261041571
C           -1.49521513058600       -2.96062207319410       -0.12006127810841
C           -0.16463965601782       -2.79908558172342        0.11946660328942
C            3.09370970162707       -0.36238030682466        2.77103573574689
C            3.41048598055732        0.85769971230586        3.32707719167700
H            3.04695547758528        3.20511080116036        4.81945824557188
H            3.93141477344646        3.63526411630708        3.36027148088037
H            2.21762305746336        4.04875049979091        3.50426715364789
H            0.81899612456289        2.67948127845244        2.17155512573485
H            0.24276684758749        0.52362952309087        1.17556817580130
H            3.87781420533061       -1.02102390967213        0.21601748951114
H            5.62649081932339       -2.53613283934397       -0.59828107371080
H            5.35983421891774       -5.68859441789255       -1.44899830718762
H            5.84262229359390       -6.07628898205432        0.19899654283231
H            6.61572005312268       -4.73325817782451       -0.65852321842350
H            3.36453989137791       -5.89036094949772        0.76349306440128
H            1.61708312692745       -4.37704914979019        1.59428899773178
H           -0.34531097800592       -1.28843001663379        3.15282136197836
H           -2.71308030713815       -1.60532053486018        2.75092145192403
H           -2.97696717635330       -1.57051837640578       -2.35238252210519
H           -1.41233166295451        0.17709466564794       -2.95849057881097
H           -2.73413135208702        3.62689219247405       -1.45070934719950
H           -2.92553261391240        5.95878408768907       -0.70653027611371
H           -1.99113465207744        7.79790893761609        0.62887384562857
H           -0.74081702906553        8.22762636331156       -0.53679206235001
H           -0.28541840097789        7.78568132892265        1.10694930898727
H            1.21330157512000        5.96886129049443        0.33859283373505
H            1.40578919044660        3.63247699205299       -0.38602418154704
H            0.55564756441675       -0.26923858466347       -1.11260686815377
H            2.57455105389927       -1.06272273845559       -2.23700230307447
H            4.36519494602718       -0.75842754252982       -3.76063087126671
H            5.02721387878553        0.87955465469349       -3.68245842171229
H            4.06840815738296        0.38926212865786       -5.07414032540446
H            2.97196926109635        2.70340752701301       -4.20728300499694
H            0.94255120683779        3.50571949869377       -3.09118295465648
H           -2.18973543690229        2.18483152875038        0.74802017903565
H           -3.73593121088574        0.44036057660347        1.38001287863663
H           -4.63181944448445       -4.07425980143572       -0.23242214923979
H           -3.74869449042424       -3.33777147310180       -1.56014743063709
H           -6.12802980209365       -3.36538670494280       -2.09878305411841
H           -5.58061272983922       -1.69604745139380       -1.89528824156610
H           -7.73130014346295       -2.01608968323019       -0.72907277696007
H           -7.05353997989449       -3.36345835019379        0.19178663027529
H           -7.00110113712807       -1.30154581147803        1.55450894748710
H           -6.09458569112247       -0.46846971152546        0.28481943297941
H           -5.12267898184053       -2.92789952659508        1.80993051511536
H           -4.63109968100448       -1.26897101893444        2.11970769942518
H           -1.79400321847015       -3.49980070609589       -1.00487442445304
H            0.56190596058065       -3.19364177443618       -0.57671251205342
H            3.72400879467475       -1.22151460154303        2.94988617326144
H            4.29769358960269        0.94748992222274        3.93798167584129
