94
 energy: -127.918260855647 gnorm: 0.000090336653 xtb: 6.7.1 (edcfbbe)
C           -9.79282194679313        1.22759570009890       -0.96974268633349
C           -8.40456555774336        0.77690050992697       -0.62721061251390
C           -7.50193013715379        1.63648482487979       -0.01244307277423
C           -6.21749317238980        1.22911389993978        0.29000989943221
C           -5.79209301733477       -0.06003789576241       -0.02822921566825
N           -4.48917520709205       -0.47561683434884        0.27257556768689
C           -4.24947360103953       -1.78786330566441        0.69774581958873
C           -5.15577470826848       -2.44503792654907        1.52824162896310
C           -4.91555937224344       -3.74218882448159        1.93856833998603
C           -3.76692183893820       -4.41993741410205        1.54955222253850
C           -3.50913470394459       -5.83119605632817        1.98542375505806
C           -2.86295180616816       -3.75677290458178        0.72592988577649
C           -3.09648516126370       -2.46515496455996        0.29950771722730
C           -3.42323638948738        0.42192297036034        0.14485830979601
C           -3.38551033496917        1.34457918486832       -0.89715722518837
C           -2.32856489546038        2.22720285295279       -1.02311033078228
C           -1.26944401838054        2.21879330425394       -0.12442834873580
C           -0.06759471827555        3.15562444622311       -0.21244858255856
C            1.15041723238011        2.24146295274949       -0.19327951754215
C            1.38458274656508        1.41076639468759       -1.28786204576380
C            2.43754803239394        0.52089308884066       -1.31509358720778
C            3.29589946611324        0.40719139109683       -0.22227569769089
N            4.35848663518122       -0.50325089660782       -0.23446688384300
C            4.19564899264531       -1.75781251620957       -0.83485558479284
C            2.98272923374991       -2.43900039548205       -0.74410825860647
C            2.82753198810398       -3.67387656666626       -1.34392764052406
C            3.87010356108397       -4.27328603869878       -2.03920244234449
C            3.70282760545726       -5.60916680426714       -2.69915798977500
C            5.07980077059276       -3.59105800618749       -2.12184835235580
C            5.24471771002539       -2.35226969350214       -1.53641370354378
C            5.57391194748324       -0.16647811192203        0.37321810676979
C            6.31532008614872       -1.12298928304178        1.06571413567325
C            7.51565580203775       -0.78287781512117        1.65794668203739
C            8.01090757681498        0.51421628478655        1.59105222905060
C            9.30000326402356        0.88525223691301        2.26055871508953
C            7.26441480115590        1.46508303409510        0.90405730281454
C            6.06863092259226        1.13534171070244        0.29800423218982
C            3.05409750255822        1.21083365583466        0.88857323350930
C            2.00041531814207        2.10517022694735        0.89885510812157
C           -0.08125078135690        4.01393872397461       -1.49013077750108
C            1.08501251067932        4.99746821846397       -1.51117213103003
C            0.96024664024149        5.97162342095754       -0.34583335195293
C            0.95431212091082        5.19636847683505        0.96625332108408
C           -0.14627309018691        4.13518209030444        0.97720817928413
C           -1.31428135878032        1.28938441218758        0.91348946779270
C           -2.36691942108723        0.41108630871230        1.05571415500936
C           -6.69153561413538       -0.92518482353909       -0.65068721266860
C           -7.97615640650440       -0.50902669087481       -0.93806243917606
H           -9.83181658662321        1.56321476979866       -2.00720231426057
H          -10.50373878110898        0.41188171690282       -0.85524797507494
H          -10.09938533591997        2.05574983711313       -0.33497766181000
H           -7.81145382992282        2.63989586104291        0.24478181787270
H           -5.53359352728804        1.90830920529183        0.77844979927489
H           -6.04968131294719       -1.93113547954963        1.85136273799574
H           -5.63231763548230       -4.23201395027809        2.58280425377075
H           -3.68870803811042       -6.51893131558091        1.15805457871975
H           -4.16333474961853       -6.10912641803674        2.80816946089681
H           -2.47435645889447       -5.95322120134706        2.30091410794288
H           -1.96336699706317       -4.26443360393967        0.40685619481511
H           -2.38548737739966       -1.96977945492216       -0.34623905175268
H           -4.19161289030328        1.36599127207559       -1.61666656326661
H           -2.34436188693062        2.91669893463586       -1.85182882580494
H            0.72527263683251        1.44781132808037       -2.14217192313123
H            2.59647056698010       -0.10125232794142       -2.18422710363799
H            2.16204979923836       -1.99451674562096       -0.19925682789461
H            1.87812969213734       -4.18419938386195       -1.26009736358855
H            4.54627817250010       -6.25871233887423       -2.47062389659006
H            3.65824328103720       -5.49066823496112       -3.78245634247802
H            2.78664963573076       -6.09325997928184       -2.36986970636090
H            5.90408521306586       -4.03513224056316       -2.66221351732111
H            6.18950950671786       -1.83431995724391       -1.61888565252867
H            5.94349925967826       -2.13516805873576        1.13632167629012
H            8.07432826717648       -1.54023919335882        2.18992450485378
H            9.80856535115710        1.67428636752086        1.71060864112327
H            9.96002334917330        0.02409244515388        2.33587402518732
H            9.10517149525434        1.25086217264725        3.26998254608350
H            7.63037062261867        2.47987296153571        0.83303369352409
H            5.50881944139747        1.88563375690288       -0.24170815672144
H            3.69319131953020        1.12439196090067        1.75596777599223
H            1.84387773415395        2.68163032284405        1.79651128929580
H           -1.00943888154040        4.58895288392896       -1.51773321028438
H           -0.04676783041834        3.38520323844063       -2.37978698666872
H            1.08422335361244        5.54333132979079       -2.45776750180592
H            2.02882188980427        4.45196147885364       -1.43750008767280
H            1.78928113896225        6.68286010915148       -0.35456484337411
H            0.03098819135447        6.53866916032606       -0.44507264158902
H            0.79669002827028        5.88008287205564        1.80449350125982
H            1.93138177265910        4.72925541458881        1.09504665392842
H           -1.11656273624816        4.63716653838136        0.91918976754927
H           -0.12942869456062        3.58873439851021        1.92126082389564
H           -0.50414967547795        1.24761230965306        1.62677142318793
H           -2.37693234656237       -0.29435861330182        1.87417434407606
H           -6.37496308017857       -1.92580830412515       -0.90793717323866
H           -8.65805456789053       -1.19482065927164       -1.42114990473951
