  40
        -69.23448777
 C          4.7212482564        2.4147480011        0.0333903643
 C          3.3136583624        2.3935367903        0.0193172997
 C          2.6824303325        1.1753913819        0.0018242238
 C          3.4698674560        0.0000524868       -0.0026128744
 C          2.6827005323       -1.1753694868       -0.0180877991
 C          3.3145092298       -2.3933048763       -0.0248392554
 C          4.7221000641       -2.4144321710       -0.0141825434
 C          5.4847089744       -1.2710044068        0.0036303801
 C          4.8663297957        0.0001567659        0.0102867056
 C          5.4841963428        1.2714407309        0.0294481087
 C          1.3009952929       -0.7188582084       -0.0191398539
 N          0.1933155255       -1.4182068307       -0.0197343002
 C         -0.9492005761       -0.7059988079       -0.0136447515
 C         -2.1983133306       -1.4231407901       -0.0027763487
 C         -2.2369834783       -2.8230284910        0.0039143853
 C         -3.4576007040       -3.4570192150        0.0205719934
 C         -4.6114498428       -2.6688353506        0.0295819617
 N         -4.5988775004       -1.3583306419        0.0221053137
 C         -3.4244318505       -0.7250497709        0.0061918988
 C         -3.4244910263        0.7248190805       -0.0008216904
 N         -4.5991223681        1.3581688724        0.0034129398
 C         -4.6116558542        2.6685554327       -0.0023018858
 C         -3.4580160307        3.4570114369       -0.0129219289
 C         -2.2373257251        2.8228697319       -0.0170433062
 C         -2.1984735396        1.4230076061       -0.0105928383
 C         -0.9493197961        0.7059554178       -0.0127689651
 N          0.1932681807        1.4180926392       -0.0096504279
 C          1.3009361682        0.7187549029       -0.0101805025
 H          5.2164782824        3.3751407171        0.0487075253
 H          2.7553296354        3.3168238991        0.0235321287
 H          2.7563335407       -3.3167194246       -0.0374619108
 H          5.2173993244       -3.3748675306       -0.0198063655
 H          6.5631273092       -1.3372158811        0.0127085463
 H          6.5626211465        1.3379242551        0.0413840545
 H         -1.3048730245       -3.3670213874       -0.0023330027
 H         -3.5302509647       -4.5337100616        0.0278421499
 H         -5.5930923805       -3.1249990396        0.0435411335
 H         -5.5935178931        3.1247952307        0.0028126480
 H         -3.5305592593        4.5336377341       -0.0170443428
 H         -1.3052752456        3.3669697103       -0.0253811741
  40
        -69.23411342
 C          4.7213210975        2.4043458328        0.2270652693
 C          3.3136762654        2.3836634535        0.2223832346
 C          2.6819173534        1.1711640069        0.1071436578
 C          3.4691133413        0.0002043689        0.0025073965
 C          2.6816724385       -1.1714031358       -0.0927813926
 C          3.3130300112       -2.3830496683       -0.2186686271
 C          4.7204843651       -2.4020614779       -0.2451203408
 C          5.4834066601       -1.2633894438       -0.1419096029
 C          4.8655647354        0.0010993500       -0.0089281822
 C          5.4838765595        1.2665602254        0.1120766146
 C          1.3003130348       -0.7178141497       -0.0347741842
 N          0.1926954278       -1.4172732875       -0.0410661935
 C         -0.9495279019       -0.7065563421        0.0065064484
 C         -2.1984914980       -1.4230040741        0.0442652118
 C         -2.2375056910       -2.8213966670        0.1068834871
 C         -3.4580717157       -3.4535227279        0.1616900816
 C         -4.6114187307       -2.6647077925        0.1492144733
 N         -4.5987207465       -1.3557798439        0.0849304084
 C         -3.4243281518       -0.7244875381        0.0325382289
 C         -3.4237076720        0.7238121403       -0.0388003196
 N         -4.5970503822        1.3551661330       -0.1107550735
 C         -4.6085988160        2.6640483119       -0.1757526877
 C         -3.4552570789        3.4529271230       -0.1670375922
 C         -2.2357754096        2.8207341994       -0.0923387936
 C         -2.1977979586        1.4222268481       -0.0311564033
 C         -0.9494320695        0.7055290735        0.0182014561
 N          0.1927675097        1.4161177210        0.0684925436
 C          1.3003633352        0.7166749683        0.0617447819
 H          5.2167915304        3.3599072472        0.3236692454
 H          2.7555383929        3.3031433480        0.3095449625
 H          2.7547627708       -3.3029895345       -0.2987681686
 H          5.2155273166       -3.3570461758       -0.3494890994
 H          6.5617967446       -1.3284641505       -0.1628102488
 H          6.5623763939        1.3329234359        0.1159436494
 H         -1.3055877632       -3.3658347895        0.1162551746
 H         -3.5307065793       -4.5288355338        0.2153694881
 H         -5.5931108462       -3.1189851275        0.1949232292
 H         -5.5892592211        3.1182820802       -0.2399675768
 H         -3.5270108894        4.5283179112       -0.2207531731
 H         -1.3038171416        3.3651391406       -0.0851862305
  40
        -69.23398038
 C          4.7194464075        2.3968288603        0.2928351091
 C          3.3122219092        2.3794755775        0.2535487495
 C          2.6811629448        1.1705808527        0.1023957316
 C          3.4687413207        0.0000250619       -0.0049292486
 C          2.6817359382       -1.1690080867       -0.1306675377
 C          3.3135934262       -2.3798676911       -0.2618012849
 C          4.7212792326       -2.4010792936       -0.2592951521
 C          5.4835896541       -1.2657375068       -0.1208522086
 C          4.8651023807       -0.0020598502        0.0168707382
 C          5.4825911628        1.2594769707        0.1766036296
 C          1.3002253190       -0.7150468353       -0.0806557548
 N          0.1927903606       -1.4147101996       -0.0878280496
 C         -0.9493512990       -0.7048151910       -0.0290968053
 C         -2.1969207702       -1.4218344131        0.0328359137
 C         -2.2336541526       -2.8196866263        0.1073550442
 C         -3.4520985016       -3.4514724448        0.2002573403
 C         -4.6056318854       -2.6629352436        0.2122894257
 N         -4.5953099519       -1.3547244980        0.1341291501
 C         -3.4229645521       -0.7237442685        0.0450938404
 C         -3.4244893417        0.7239838569       -0.0378399641
 N         -4.5992997691        1.3541879261       -0.0941454406
 C         -4.6128465310        2.6626601245       -0.1669194680
 C         -3.4600365594        3.4521818137       -0.1830008344
 C         -2.2389863950        2.8211383148       -0.1252308122
 C         -2.1990560798        1.4231188165       -0.0552707610
 C         -0.9497877636        0.7073157028       -0.0158774077
 N          0.1922841502        1.4178268954        0.0368872201
 C          1.3000098478        0.7184965090        0.0293878750
 H          5.2141008237        3.3491894937        0.4197776118
 H          2.7538769364        3.2984652091        0.3439699835
 H          2.7556323098       -3.2973701591       -0.3676330640
 H          5.2168862703       -3.3551279046       -0.3683909716
 H          6.5620487796       -1.3326589262       -0.1185198289
 H          6.5608038826        1.3231814685        0.2090551638
 H         -1.3015363988       -3.3638596276        0.0965313721
 H         -3.5227575008       -4.5262636680        0.2658426867
 H         -5.5853904163       -3.1168393187        0.2908564024
 H         -5.5948295567        3.1159991415       -0.2158601473
 H         -3.5334842656        4.5271252890       -0.2422900704
 H         -1.3074620350        3.3661963687       -0.1376737385
