  65
       -101.59290485
 N        -10.4132827761        0.0635499618        0.0046474651
 C         -9.2666370730        0.0629222878        0.0170103535
 C         -7.8538468365        0.0627630725        0.0341686746
 C         -7.1696495142        0.3232268218        1.2227610265
 C         -5.7900274103        0.3216640315        1.2326161853
 C         -5.0709780764        0.0677602530        0.0659055806
 C         -3.5939353112        0.0801146668        0.0802593879
 C         -2.8932863000       -0.9333173859        0.7490930600
 C         -3.5630208429       -2.0064617842        1.3942981342
 C         -2.8720008087       -2.9712895470        2.0599182035
 C         -1.4653958423       -2.9204893597        2.1264557384
 C         -0.7843934777       -1.9224940749        1.5005788830
 C         -1.4639664107       -0.9094959772        0.7740768221
 C         -0.7706345375        0.1091271989        0.1044944473
 C          0.7073273945        0.1248599008        0.1120075250
 C          1.3876451279        1.1307373923        0.8093937774
 C          2.7661294967        1.1920511494        0.8395678352
 C          3.4761750932        0.2277487493        0.1380384970
 C          2.8052289144       -0.8079757954       -0.5526470553
 C          1.4191276653       -0.8554855533       -0.5633825734
 C          3.8237981991       -1.6460082437       -1.1199215869
 C          3.7897747451       -2.7884975751       -1.9084539521
 C          4.9851782839       -3.3467817283       -2.3138899233
 C          6.2025509931       -2.7722962914       -1.9541090355
 C          6.2617493871       -1.6363243766       -1.1698675493
 C          5.0639615539       -1.0830541353       -0.7402546426
 N          4.8388757317        0.0487169816        0.0185197836
 C          5.8243073306        0.8803785024        0.5696894536
 C          5.7698501163        2.2562476415        0.3664824140
 C          6.7378767196        3.0743641128        0.9184520130
 C          7.7697068068        2.5301934953        1.6650409632
 C          7.8287145838        1.1606808755        1.8626705183
 C          6.8593040221        0.3353230049        1.3236435961
 C         -1.4735578461        1.1139977248       -0.5760884752
 C         -0.8022268921        2.1412133514       -1.2900448233
 C         -1.4920223070        3.1262196028       -1.9267481973
 C         -2.9001953973        3.1479684228       -1.8851465091
 C         -3.5828641094        2.1684263920       -1.2324148256
 C         -2.9029422751        1.1087761587       -0.5759159826
 C         -5.7624752312       -0.1914605139       -1.1161658623
 C         -7.1419431264       -0.1979562706       -1.1376582503
 H         -7.7264849599        0.5251879786        2.1262238054
 H         -5.2549208930        0.5255689209        2.1488947046
 H         -4.6412914287       -2.0477829938        1.3457472271
 H         -3.3963449120       -3.7811351344        2.5456448597
 H         -0.9337524837       -3.6837029426        2.6753467544
 H          0.2935732457       -1.8847256756        1.5495028842
 H          0.8098641616        1.8693162126        1.3460934231
 H          3.2716396847        1.9626345611        1.4017702451
 H          0.8983048890       -1.6388477203       -1.0938132457
 H          2.8453937159       -3.2233117362       -2.1994337687
 H          4.9821096048       -4.2359333853       -2.9265405253
 H          7.1212716309       -3.2231430070       -2.2993308954
 H          7.2098372178       -1.1891930734       -0.9115290834
 H          4.9762778828        2.6743678417       -0.2347485270
 H          6.6904840616        4.1412614422        0.7577998788
 H          8.5259027610        3.1716724420        2.0914854163
 H          8.6296078493        0.7326178126        2.4471525380
 H          6.8896885476       -0.7305737991        1.4939647868
 H          0.2769041590        2.1247258126       -1.3206054164
 H         -0.9665902850        3.9009610137       -2.4654460044
 H         -3.4327467088        3.9474317271       -2.3789996901
 H         -4.6624266807        2.1885456208       -1.2027875222
 H         -5.2060843018       -0.3930544142       -2.0199973506
 H         -7.6772626151       -0.4018562211       -2.0533613509
  65
       -101.59266059
 N        -10.4154444291        0.0057220811        0.1244910686
 C         -9.2688788789        0.0194988959        0.1135528330
 C         -7.8560408804        0.0372520479        0.1020080243
 C         -7.1538838105        0.4255453507        1.2440351624
 C         -5.7743734401        0.4380336289        1.2280817409
 C         -5.0731757585        0.0714459472        0.0807248930
 C         -3.5962440764        0.0884316843        0.0698665026
 C         -2.8846411161       -0.8475982982        0.8341973132
 C         -3.5400284692       -1.8471223539        1.6007105832
 C         -2.8341175956       -2.7425742881        2.3434890810
 C         -1.4257853248       -2.6965957730        2.3669454241
 C         -0.7583635275       -1.7670899766        1.6311776955
 C         -1.4554498763       -0.8227143603        0.8327511146
 C         -0.7748329409        0.1247901056        0.0572473242
 C          0.7059774953        0.1477946695        0.0614450177
 C          1.3785025765        1.0901871754        0.8475894604
 C          2.7570102861        1.1431798006        0.8992874160
 C          3.4723496770        0.2373169601        0.1287827727
 C          2.8071165087       -0.7304879641       -0.6592609008
 C          1.4206867728       -0.7718730083       -0.6897497891
 C          3.8297653144       -1.5215779661       -1.2834792377
 C          3.8026013940       -2.5919305193       -2.1677847246
 C          5.0014530811       -3.1196712025       -2.6026863321
 C          6.2160293488       -2.5842514348       -2.1785029572
 C          6.2684349025       -1.5214295566       -1.2975090522
 C          5.0666404087       -1.0022066203       -0.8372431515
 N          4.8362518491        0.0595466980        0.0150069086
 C          5.8192061720        0.8074254713        0.6792245548
 C          5.7977407933        2.1979213513        0.6255205364
 C          6.7639772572        2.9289300781        1.2916033913
 C          7.7609951636        2.2838466623        2.0041914238
 C          7.7872258295        0.8998710414        2.0532086815
 C          6.8193027226        0.1605029209        1.3994395133
 C         -1.4864619009        1.0498768941       -0.7166044726
 C         -0.8202619201        2.0051898346       -1.5283553981
 C         -1.5173406748        2.9098839991       -2.2674987944
 C         -2.9262418194        2.9212898562       -2.2305849058
 C         -3.6028769765        2.0163757159       -1.4721779377
 C         -2.9158888997        1.0385662315       -0.7052757542
 C         -5.7827510358       -0.3122559367       -1.0559949033
 C         -7.1621689331       -0.3336085857       -1.0508979975
 H         -7.6968548716        0.7128111331        2.1326993478
 H         -5.2258935799        0.7403319563        2.1083611497
 H         -4.6191067776       -1.8909293056        1.5816949390
 H         -3.3483955237       -3.4969824958        2.9206567710
 H         -0.8829780519       -3.4103115775        2.9690102800
 H          0.3209704414       -1.7331346255        1.6397432500
 H          0.7953636880        1.7837356615        1.4357651292
 H          3.2578668026        1.8606351156        1.5314608687
 H          0.9029381241       -1.5078750198       -1.2866762938
 H          2.8608657136       -2.9956899457       -2.5078710641
 H          5.0036921450       -3.9536299810       -3.2886162198
 H          7.1377699933       -3.0075702358       -2.5497548958
 H          7.2141707367       -1.1026552197       -0.9878672357
 H          5.0317824032        2.6969412996        0.0508534777
 H          6.7425838985        4.0077929975        1.2471978146
 H          8.5155619294        2.8579577024        2.5202427584
 H          8.5604720985        0.3928150794        2.6111607163
 H          6.8229781080       -0.9180314921        1.4532075528
 H          0.2595899123        1.9959308369       -1.5468527026
 H         -0.9988624280        3.6297787834       -2.8835625195
 H         -3.4645061110        3.6568901692       -2.8101842788
 H         -4.6824625046        2.0343328717       -1.4425217735
 H         -5.2400531288       -0.6009196472       -1.9444904549
 H         -7.7114148929       -0.6354906242       -1.9307080240
  65
       -101.59257471
 N        -10.4153458021        0.0048613954        0.0479579368
 C         -9.2688133913        0.0167175552        0.0560295818
 C         -7.8559832235        0.0321975200        0.0634626272
 C         -7.1721615373        1.0954372252        0.6548825523
 C         -5.7925342638        1.1055860344        0.6562205834
 C         -5.0730199096        0.0618875550        0.0769424294
 C         -3.5960398481        0.0777864985        0.0854749935
 C         -2.8948857629       -0.8431711729        0.8771652831
 C         -3.5609048933       -1.7822261134        1.7082075723
 C         -2.8640317170       -2.6658114847        2.4734796192
 C         -1.4546774512       -2.6627636526        2.4627206731
 C         -0.7775551851       -1.7683198856        1.6931738014
 C         -1.4654925436       -0.8293773203        0.8805205926
 C         -0.7750931109        0.1089234047        0.1035066050
 C          0.7064794239        0.1247335721        0.1115076767
 C          1.3838879933        1.0022047932        0.9650333272
 C          2.7628586355        1.0543097286        1.0084900274
 C          3.4727615108        0.2130562239        0.1635221151
 C          2.8022848602       -0.6936877387       -0.6898166046
 C          1.4156193225       -0.7334379456       -0.7136731305
 C          3.8207373096       -1.4324019698       -1.3812576757
 C          3.7872538489       -2.4314295028       -2.3452730647
 C          4.9828518086       -2.9213708185       -2.8304040383
 C          6.2002482121       -2.4174045418       -2.3769831123
 C          6.2589612893       -1.4243568323       -1.4182978652
 C          5.0607364824       -0.9441696718       -0.9090709738
 N          4.8359667023        0.0493212503        0.0232484527
 C          5.8234499245        0.7638491783        0.7165122681
 C          5.7849290292        2.1545850679        0.7538138068
 C          6.7570754827        2.8535722337        1.4450224539
 C          7.7772042548        2.1768438870        2.0925448103
 C          7.8201886212        0.7931263097        2.0512375837
 C          6.8464134935        0.0849000936        1.3720222098
 C         -1.4762139607        1.0323345178       -0.6815520215
 C         -0.7986963750        1.9877457592       -1.4836334639
 C         -1.4852339397        2.8688034855       -2.2602105565
 C         -2.8940301223        2.8400089357       -2.2901458162
 C         -3.5811037967        1.9394563411       -1.5358536112
 C         -2.9054144716        1.0145823323       -0.6967541481
 C         -5.7642290744       -0.9967840953       -0.5095583033
 C         -7.1437165240       -1.0159716562       -0.5216193409
 H         -7.7290735312        1.9024343282        1.1081488093
 H         -5.2578901667        1.9246059874        1.1147334756
 H         -4.6408176967       -1.7809443207        1.7303139983
 H         -3.3865022575       -3.3733664060        3.1004868769
 H         -0.9195538320       -3.3714573888        3.0774272615
 H          0.3023737329       -1.7530791124        1.6899836771
 H          0.8047998288        1.6485779213        1.6084511487
 H          3.2682401915        1.7231689955        1.6885671511
 H          0.8936273114       -1.4224687803       -1.3607964008
 H          2.8431006247       -2.8091616028       -2.7077438901
 H          4.9801706453       -3.6994111233       -3.5791757767
 H          7.1192607286       -2.8095166173       -2.7870125155
 H          7.2070085645       -1.0282765239       -1.0868522697
 H          5.0007996487        2.6797846767        0.2290711485
 H          6.7219862400        3.9326614643        1.4711508833
 H          8.5367801597        2.7262015696        2.6278034773
 H          8.6117212900        0.2611654404        2.5579696230
 H          6.8635237386       -0.9946232543        1.3565855798
 H          0.2811877955        1.9955387715       -1.4665080987
 H         -0.9581674385        3.5908137433       -2.8663670646
 H         -3.4237554718        3.5368159277       -2.9230808437
 H         -4.6602977829        1.9134570805       -1.5730749705
 H         -5.2077983132       -1.8039006785       -0.9634943379
 H         -7.6789766298       -1.8349525702       -0.9792496317
  65
       -101.59240495
 N        -10.4027822547        0.4072727940        0.0732948546
 C         -9.2592043662        0.3215937794        0.0754598199
 C         -7.8494844326        0.2279400904        0.0706329941
 C         -7.1434586528        0.2620879191        1.2741728077
 C         -5.7661913417        0.1839904426        1.2624489885
 C         -5.0694414643        0.0750888791        0.0598139965
 C         -3.5942398258        0.0281888537        0.0543762737
 C         -2.9229750637       -1.0634391135        0.6239316792
 C         -3.6251875058       -2.1787944202        1.1522399540
 C         -2.9664706255       -3.2154383884        1.7379396777
 C         -1.5617809173       -3.1943603115        1.8438409679
 C         -0.8498757600       -2.1572904340        1.3246410897
 C         -1.4935247300       -1.0749950735        0.6686509108
 C         -0.7684640548       -0.0224452483        0.0894893082
 C          0.7068562044       -0.0098064602        0.1356465168
 C          1.3548071867        1.0295737737        0.8181255578
 C          2.7293681543        1.1322040640        0.8572609960
 C          3.4715855206        0.1686119525        0.1885898435
 C          2.8380847868       -0.9171333681       -0.4584447729
 C          1.4531354059       -0.9972664566       -0.4916301916
 C          3.8886757461       -1.7476170831       -0.9778623854
 C          3.8989179831       -2.9340167163       -1.6994882196
 C          5.1150576587       -3.4727399558       -2.0682964387
 C          6.3098435909       -2.8356815205       -1.7401159996
 C          6.3254690735       -1.6551889824       -1.0222080284
 C          5.1074663206       -1.1217900998       -0.6265580178
 N          4.8395535257        0.0363311932        0.0769860622
 C          5.7818187417        0.9810140202        0.5090813870
 C          5.6156892343        2.3228891882        0.1768095252
 C          6.5388170988        3.2597217179        0.6012174647
 C          7.6373556305        2.8677459452        1.3483339382
 C          7.8068269884        1.5326852494        1.6751957495
 C          6.8825797901        0.5893484732        1.2644195301
 C         -1.4432529540        1.0449260351       -0.5253699377
 C         -0.7445656801        2.0920723404       -1.1823649524
 C         -1.4031573377        3.1498832363       -1.7290541976
 C         -2.8068374935        3.2310331786       -1.6457354290
 C         -3.5172946110        2.2284594932       -1.0614182907
 C         -2.8717517176        1.0883652964       -0.5134054845
 C         -5.7839554217        0.0328644935       -1.1368070996
 C         -7.1614487115        0.1070217207       -1.1378915585
 H         -7.6815718919        0.3538872441        2.2062789910
 H         -5.2147041108        0.2192425317        2.1908381676
 H         -4.7024861637       -2.1958005387        1.0757113630
 H         -3.5154918458       -4.0579578468        2.1321804445
 H         -1.0558188538       -4.0111586341        2.3372682348
 H          0.2263688785       -2.1431158130        1.4073079752
 H          0.7517550836        1.7647664515        1.3310896001
 H          3.2091997429        1.9345937633        1.3971478749
 H          0.9613371560       -1.8059610539       -1.0117343270
 H          2.9719956942       -3.4188328230       -1.9666909606
 H          5.1459679124       -4.3963531898       -2.6268342329
 H          7.2454302464       -3.2732037593       -2.0557478741
 H          7.2561813183       -1.1611713991       -0.7875847928
 H          4.7696268240        2.6202594091       -0.4249204308
 H          6.4039914788        4.2988323032        0.3397544924
 H          8.3590367566        3.6011769546        1.6747183300
 H          8.6600701863        1.2242984602        2.2610314046
 H          7.0005223720       -0.4487188341        1.5369704566
 H          0.3313030099        2.0325900541       -1.2468679198
 H         -0.8553506388        3.9369961122       -2.2259347369
 H         -3.3142432582        4.0912210948       -2.0571201077
 H         -4.5937842153        2.2927271614       -1.0053384849
 H         -5.2468558211       -0.0623510637       -2.0693191366
 H         -7.7137105607        0.0741306484       -2.0657178770
