  99
       -149.87803894
 C         -8.6978369702       -4.0727688790        2.8849065625
 C         -7.6833587161       -3.2253290823        2.1794706718
 C         -6.4466763780       -2.9725762043        2.7638925280
 C         -5.4981624255       -2.2013064368        2.1245207750
 C         -5.7597340927       -1.6650374809        0.8639028790
 N         -4.7970625939       -0.8856251429        0.2125500894
 C         -5.1880769639        0.1860286261       -0.6039624842
 C         -4.5259515473        0.4395755282       -1.8049283259
 C         -4.8984342743        1.5047162977       -2.5997502299
 C         -5.9484729692        2.3383993131       -2.2348680137
 C         -6.3455786611        3.5008670407       -3.0923907899
 C         -6.6132687817        2.0738669146       -1.0425369701
 C         -6.2408986385        1.0197189328       -0.2322907459
 C         -3.4439179290       -1.2054039269        0.2938606015
 C         -3.0122242131       -2.5347109457        0.3367812026
 C         -1.6676552543       -2.8535978060        0.3065735412
 C         -0.7313090028       -1.8338896435        0.2176253798
 C         -1.1668357690       -0.4995098818        0.2256445389
 C         -2.4971556380       -0.1734784967        0.2741563896
 C         -0.0018789965        0.4454158969        0.0399310327
 C          0.2698201295        1.4389584183        1.1381668440
 C          0.6418667296        1.1848857847        2.4369329211
 C          0.9542102514        2.2744486275        3.2566486298
 C          1.3819264935        2.0473261741        4.5831332979
 N          1.7473525680        1.8661694659        5.6554390029
 C          0.8797415287        3.5855331600        2.7751963879
 C          0.5010002402        3.8313369104        1.4695027581
 C          0.2056268510        2.7539483502        0.6460200544
 C         -0.1636603828        2.6990744232       -0.7567554439
 C         -0.4361212222        3.7095377638       -1.6683768280
 C         -0.8247557497        3.3629415300       -2.9480289976
 C         -0.9309403556        2.0179976553       -3.3166997102
 C         -1.3716865632        1.6883526166       -4.6170285264
 N         -1.7512794144        1.4232701914       -5.6666271965
 C         -0.6394679036        0.9948343822       -2.4086784841
 C         -0.2583518386        1.3492549939       -1.1362905871
 C          1.1551143485       -0.5215955919       -0.0689059987
 C          2.4857721624       -0.2114441206       -0.1757749740
 C          3.4249334942       -1.2491841418       -0.1288156066
 N          4.7830627459       -0.9416386475       -0.1363222388
 C          5.2259128148        0.2064635038        0.5354066506
 C          6.2737946826        0.9713527363        0.0250813225
 C          6.6971316547        2.1036669394        0.6907191038
 C          6.0895835369        2.5174113417        1.8719634406
 C          6.5620213704        3.7528055269        2.5758397607
 C          5.0456063607        1.7521288324        2.3751891142
 C          4.6219249330        0.6094736764        1.7256187780
 C          5.7019228120       -1.7925969518       -0.7624058614
 C          5.3711848697       -2.4282772245       -1.9589190896
 C          6.2739585056       -3.2719507800       -2.5720911813
 C          7.5320045441       -3.5013733808       -2.0246018998
 C          8.4950509725       -4.4290346967       -2.7004631059
 C          7.8577729931       -2.8587917441       -0.8373791224
 C          6.9592509060       -2.0191524462       -0.2078054388
 C          2.9839204538       -2.5727072833       -0.0314881961
 C          1.6387982608       -2.8768293324        0.0591844983
 C          0.7106410030       -1.8459629123        0.0675375245
 C         -6.9948888138       -1.9175615010        0.2713043787
 C         -7.9396772515       -2.6827661911        0.9270599933
 H         -9.6648989406       -4.0129027402        2.3921643773
 H         -8.8104058532       -3.7550544122        3.9200671811
 H         -8.3792645301       -5.1153998948        2.8901617020
 H         -6.2276516518       -3.3804238444        3.7403907857
 H         -4.5474028973       -2.0048613897        2.5985789101
 H         -3.7182305951       -0.2064370991       -2.1156773876
 H         -4.3710979625        1.6801827534       -3.5271170251
 H         -5.9116527672        4.4218787628       -2.7007320033
 H         -5.9929151640        3.3667508011       -4.1122957625
 H         -7.4270285226        3.6201247457       -3.1046025283
 H         -7.4333033863        2.7091288897       -0.7395841697
 H         -6.7633467472        0.8349788381        0.6950134759
 H         -3.7504450253       -3.3225732259        0.3595786612
 H         -1.3568654949       -3.8873763874        0.3121041689
 H         -2.8204121324        0.8569948262        0.2626930945
 H          0.7078049596        0.1761523216        2.8168636354
 H          1.1310795241        4.4027686645        3.4352623523
 H          0.4534462205        4.8431244327        1.0964565432
 H         -0.3644017731        4.7478353381       -1.3822695120
 H         -1.0599458673        4.1268050384       -3.6744398955
 H         -0.7282988470       -0.0407863374       -2.7019453535
 H          2.8146829132        0.8130097987       -0.2696799272
 H          6.7504505341        0.6716789736       -0.8967971532
 H          7.5109987366        2.6851808853        0.2816961716
 H          6.5054697533        4.6153867105        1.9128444648
 H          5.9594326262        3.9507358824        3.4586410649
 H          7.6008935819        3.6394373646        2.8839701661
 H          4.5609589683        2.0435650742        3.2966244510
 H          3.8179815561        0.0209910970        2.1426745973
 H          4.4023895450       -2.2523149797       -2.4036312110
 H          6.0017259079       -3.7563909482       -3.4989315431
 H          8.5764640426       -4.1919406272       -3.7599483707
 H          9.4816164203       -4.3625466819       -2.2491139828
 H          8.1473330885       -5.4588626532       -2.6164874602
 H          8.8277872016       -3.0226977100       -0.3903041816
 H          7.2263082321       -1.5354131823        0.7203039532
 H          3.7167352582       -3.3653080986       -0.0002324774
 H          1.3217264911       -3.9041704773        0.1558218245
 H         -7.2083603345       -1.5130102804       -0.7071594100
 H         -8.8912947666       -2.8676018476        0.4496879130
