  72
       -119.77490047
 C          6.4208842853       -3.2382114844        1.2008386100
 C          7.5843430447       -2.5039447640        0.9272605019
 N          7.5689068810       -1.2791691900        0.4734156543
 C          6.4023488431       -0.6740810121        0.2506936267
 C          5.1644475109       -1.3234622595        0.4923640267
 C          5.2065772896       -2.6407008460        0.9809773067
 C          3.9235040809       -0.6692284518        0.2495629606
 N          2.7681969092       -1.2833573641        0.4665036412
 C          1.6020314682       -0.6797309299        0.2491912270
 C          0.3826546180       -1.3021972409        0.4950330268
 C         -0.8247037110       -0.6528739077        0.2650525178
 N         -2.0329617582       -1.3044203967        0.5493727560
 C         -3.0830285261       -0.7549665904        1.2586213461
 C         -3.0916032143        0.3577937178        2.0860728291
 C         -4.2889457000        0.7084405982        2.6791549771
 C         -5.4434716611       -0.0433688746        2.4783181728
 C         -5.4235520938       -1.1890591693        1.7058002001
 C         -4.2332792562       -1.5584220718        1.0967567007
 C         -3.8428603628       -2.6617310071        0.2627001108
 C         -4.5196980505       -3.7606059658       -0.2458858661
 C         -3.8322261100       -4.6463683100       -1.0533467759
 C         -2.4895871388       -4.4426181313       -1.3611899460
 C         -1.7944427845       -3.3541742995       -0.8686915735
 C         -2.4773427710       -2.4689376120       -0.0479573641
 C         -0.8252271334        0.6540522894       -0.2582650182
 N         -2.0341120815        1.3036349269       -0.5441287836
 C         -2.4812044360        2.4684280318        0.0503141935
 C         -1.8013148493        3.3554295986        0.8716030785
 C         -2.4985909066        4.4443167304        1.3601637378
 C         -3.8404460237        4.6465569794        1.0480204486
 C         -4.5250330914        3.7588667274        0.2401594932
 C         -3.8459815664        2.6597414552       -0.2648377866
 C         -4.2327652911        1.5554081632       -1.0991767262
 C         -5.4202059251        1.1854451501       -1.7134239369
 C         -5.4362570306        0.0397536286       -2.4859907940
 C         -4.2805978226       -0.7116064185       -2.6817675717
 C         -3.0859200100       -0.3601199401       -2.0839172687
 C         -3.0813524786        0.7527652495       -1.2565831269
 C          0.3817857201        1.3044454477       -0.4874900413
 C          1.6014886915        0.6827382542       -0.2417254878
 N          2.7676001035        1.2867724178       -0.4596049675
 C          3.9229853269        0.6726401614       -0.2442927286
 C          5.1640656314        1.3259856691       -0.4902587584
 C          5.2061429189        2.6418172286       -0.9823333403
 C          6.4204725726        3.2378947114       -1.2064071413
 C          7.5839655182        2.5039351121       -0.9326288075
 N          7.5686808102        1.2802036462       -0.4758899735
 C          6.4020620087        0.6762374463       -0.2501005013
 H          6.4906840772       -4.2480149875        1.5737572191
 H          8.5632663385       -2.9367242201        1.0854975379
 H          4.2697662243       -3.1454545371        1.1684848396
 H          0.3860839915       -2.2971579617        0.9110804016
 H         -2.1937054106        0.9288877776        2.2673704132
 H         -4.3268955413        1.5829332935        3.3112507800
 H         -6.3629414102        0.2670277390        2.9515765705
 H         -6.3124486241       -1.7880482887        1.5785923109
 H         -5.5629866721       -3.9141160670       -0.0156536684
 H         -4.3410306209       -5.5083511652       -1.4584139944
 H         -1.9809470578       -5.1478084702       -2.0018333060
 H         -0.7571836347       -3.1958280443       -1.1240718107
 H         -0.7643052453        3.1988609808        1.1291665925
 H         -1.9915401401        5.1522488034        1.9991126256
 H         -4.3508752722        5.5094094260        1.4491815110
 H         -5.5679419691        3.9111751274        0.0072187444
 H         -6.3102266586        1.7834397626       -1.5892848478
 H         -6.3537976032       -0.2717128559       -2.9624209769
 H         -4.3156319460       -1.5863295325       -3.3136978862
 H         -2.1867206607       -0.9300739797       -2.2621216560
 H          0.3845955139        2.2993908430       -0.9036319288
 H          4.2695901827        3.1475326150       -1.1684815662
 H          6.4898842116        4.2465408760       -1.5823682304
 H          8.5628948288        2.9355474986       -1.0939650628
  72
       -119.77475464
 C          6.4125339768       -2.7621484937        2.0746573910
 C          7.5760457807       -2.1404084147        1.5981245209
 N          7.5609215933       -1.0933526709        0.8170881944
 C          6.3944102089       -0.5721470854        0.4373240194
 C          5.1564368852       -1.1212624855        0.8595927396
 C          5.1982284861       -2.2458513111        1.7015861740
 C          3.9157149948       -0.5604774022        0.4430744893
 N          2.7604344090       -1.0514236070        0.8701530755
 C          1.5944450375       -0.5524461862        0.4659604515
 C          0.3746058842       -1.0556826845        0.9044299484
 C         -0.8336129341       -0.5382249116        0.4504754537
 N         -2.0381117953       -1.0737540676        0.9277386086
 C         -2.4412516199       -1.0524647010        2.2499612766
 C         -1.7183741089       -0.7152774607        3.3846026793
 C         -2.3754136184       -0.7497179107        4.6001510650
 C         -3.7194765619       -1.1028671532        4.6887128989
 C         -4.4465583627       -1.4268720177        3.5592365506
 C         -3.8083281942       -1.4023593853        2.3276734294
 C         -4.2435901005       -1.6530495281        0.9811936272
 C         -5.4568487937       -2.0202078207        0.4182557051
 C         -5.5237898313       -2.1981007712       -0.9504815008
 C         -4.3934712382       -2.0523566150       -1.7502887737
 C         -3.1734887985       -1.6922452076       -1.2114560849
 C         -3.1169968956       -1.4510120558        0.1529908949
 C         -0.8334363709        0.5295491016       -0.4660023581
 N         -2.0384657360        1.0686082683       -0.9381847889
 C         -3.1118169196        1.4483151326       -0.1569089179
 C         -3.1591246212        1.6898754094        1.2078243737
 C         -4.3749965240        2.0523003438        1.7543412131
 C         -5.5101419072        2.1996950107        0.9617032307
 C         -5.4521424579        2.0219046924       -0.4074431103
 C         -4.2431060868        1.6525767605       -0.9780734419
 C         -3.8165497811        1.4010367872       -2.3271829625
 C         -4.4621768185        1.4273730020       -3.5548441700
 C         -3.7425071186        1.1025684395       -4.6888543592
 C         -2.3985603389        0.7469607068       -4.6085833380
 C         -1.7342160026        0.7106959529       -3.3970395112
 C         -2.4496450071        1.0484866710       -2.2578870339
 C          0.3749748139        1.0453781189       -0.9214535335
 C          1.5947344721        0.5429346226       -0.4815007846
 N          2.7610956189        1.0440117817       -0.8821444557
 C          3.9159773552        0.5572545718       -0.4490359660
 C          5.1569170092        1.1237661032       -0.8570810087
 C          5.1993304156        2.2489087018       -1.6982596583
 C          6.4136981414        2.7723035837       -2.0610138781
 C          7.5767621322        2.1568322366       -1.5754672091
 N          7.5611417984        1.1091721310       -0.7953338482
 C          6.3945573678        0.5812715151       -0.4252259481
 H          6.4818735481       -3.6254321407        2.7176057453
 H          8.5548456685       -2.5149307815        1.8668193122
 H          4.2617103943       -2.6727320382        2.0305800567
 H          0.3762644777       -1.8948150220        1.5819438855
 H         -0.6798389211       -0.4258938564        3.3221737958
 H         -1.8353346481       -0.4931101954        5.4995134485
 H         -4.1979450139       -1.1164386402        5.6566470517
 H         -5.4912271066       -1.6894098971        3.6281805152
 H         -6.3271351937       -2.1647487648        1.0401813452
 H         -6.4617859775       -2.4729686133       -1.4091233202
 H         -4.4687148430       -2.2250152715       -2.8134282518
 H         -2.2953517919       -1.6072210301       -1.8333923660
 H         -2.2771486423        1.6031963945        1.8241050272
 H         -4.4431902352        2.2251604407        2.8179262454
 H         -6.4448755588        2.4755961126        1.4263544468
 H         -6.3262323897        2.1675517785       -1.0237304647
 H         -5.5067235375        1.6919410764       -3.6173230710
 H         -4.2268065459        1.1174840610       -5.6538549075
 H         -1.8642933073        0.4904044687       -5.5114367077
 H         -0.6957886156        0.4196011870       -3.3409498596
 H          0.3768604082        1.8845639300       -1.5988608239
 H          4.2631581991        2.6707870592       -2.0345751408
 H          6.4834506431        3.6361008642       -2.7033430455
 H          8.5556329439        2.5368713506       -1.8361672418
  72
       -119.77445631
 C          6.3958813427       -2.8579513719        1.9506511619
 C          7.5622415976       -2.2062367874        1.5238852856
 N          7.5524315356       -1.1216723884        0.7957797819
 C          6.3883037701       -0.5878441796        0.4260289625
 C          5.1480605312       -1.1618024253        0.8055676809
 C          5.1840401356       -2.3280573388        1.5889407665
 C          3.9102395384       -0.5830362152        0.4052701361
 N          2.7531669591       -1.0827544798        0.8157253188
 C          1.5898026557       -0.5649452090        0.4283056894
 C          0.3687056380       -1.0625096367        0.8685188309
 C         -0.8379524894       -0.5301775244        0.4280669038
 N         -2.0401856381       -1.0531176841        0.9249275601
 C         -2.4147289222       -1.0206118477        2.2550672864
 C         -1.6684834009       -0.6676898570        3.3696725150
 C         -2.2986476108       -0.6910651526        4.5995217952
 C         -3.6389314528       -1.0489314914        4.7210611420
 C         -4.3892152641       -1.3882757632        3.6113798517
 C         -3.7783361149       -1.3744559064        2.3657295828
 C         -4.2409926902       -1.6394550081        1.0312012185
 C         -5.4644629136       -2.0174038858        0.4985247813
 C         -5.5609427720       -2.2069072243       -0.8668411841
 C         -4.4498626395       -2.0603519044       -1.6930509330
 C         -3.2197887032       -1.6902621050       -1.1847587282
 C         -3.1334481721       -1.4400415251        0.1765187954
 C         -0.8350036726        0.5407695205       -0.4843165232
 N         -2.0389883931        1.0796381221       -0.9604000235
 C         -3.1213716298        1.4466383445       -0.1851708237
 C         -3.1765466579        1.6989853843        1.1773251399
 C         -4.4010872186        2.0397939938        1.7183770661
 C         -5.5374176160        2.1563198474        0.9223041869
 C         -5.4724388422        1.9698302832       -0.4453784609
 C         -4.2544715276        1.6222962188       -1.0104635058
 C         -3.8202297804        1.3671176776       -2.3565103679
 C         -4.4636193313        1.3694856213       -3.5856294189
 C         -3.7353777849        1.0481005340       -4.7151879613
 C         -2.3849898387        0.7195133611       -4.6290214024
 C         -1.7229491094        0.7060962334       -3.4156114259
 C         -2.4473266540        1.0401934657       -2.2811759143
 C          0.3755560423        1.0566908609       -0.9350309372
 C          1.5941493695        0.5478315123       -0.4984703845
 N          2.7628405575        1.0587652498       -0.8800503548
 C          3.9153209956        0.5646968128       -0.4480323844
 C          5.1585658885        1.1546341243       -0.8136426051
 C          5.2069039203        2.3141976905       -1.6064694479
 C          6.4227690561        2.8667875106       -1.9173017220
 C          7.5817619885        2.2455037843       -1.4295449307
 N          7.5610624526        1.1631998490       -0.6983651627
 C          6.3930583992        0.6056186766       -0.3801809701
 H          6.4610645510       -3.7535000133        2.5484365780
 H          8.5392528346       -2.5891354417        1.7873607331
 H          4.2453874614       -2.7744800099        1.8842717471
 H          0.3669121632       -1.9078780261        1.5382033479
 H         -0.6326611223       -0.3753416187        3.2809072762
 H         -1.7401503077       -0.4222745649        5.4839572842
 H         -4.0959418506       -1.0540172171        5.6993900258
 H         -5.4309446695       -1.6542960296        3.7064154735
 H         -6.3199237868       -2.1607480546        1.1409700344
 H         -6.5075038917       -2.4903930223       -1.3020621475
 H         -4.5483761170       -2.2406768608       -2.7530152915
 H         -2.3569923343       -1.6034555200       -1.8275962725
 H         -2.2945529490        1.6339574730        1.7962834337
 H         -4.4754228120        2.2192739079        2.7804538468
 H         -6.4790693791        2.4149817438        1.3828704193
 H         -6.3479776669        2.0920368425       -1.0646893200
 H         -5.5127665558        1.6140833405       -3.6527229788
 H         -4.2175930735        1.0456277603       -5.6813678353
 H         -1.8436890483        0.4656907330       -5.5284438317
 H         -0.6795106788        0.4347229749       -3.3544813363
 H          0.3796707609        1.9028606802       -1.6037490846
 H          4.2736105949        2.7411063277       -1.9444250377
 H          6.4966229404        3.7584632725       -2.5198418099
 H          8.5614586199        2.6501319944       -1.6463849412
