  72
       -119.77490047
 C          6.4208842853       -3.2382114844        1.2008386100
 C          7.5843430447       -2.5039447640        0.9272605019
 N          7.5689068810       -1.2791691900        0.4734156543
 C          6.4023488431       -0.6740810121        0.2506936267
 C          5.1644475109       -1.3234622595        0.4923640267
 C          5.2065772896       -2.6407008460        0.9809773067
 C          3.9235040809       -0.6692284518        0.2495629606
 N          2.7681969092       -1.2833573641        0.4665036412
 C          1.6020314682       -0.6797309299        0.2491912270
 C          0.3826546180       -1.3021972409        0.4950330268
 C         -0.8247037110       -0.6528739077        0.2650525178
 N         -2.0329617582       -1.3044203967        0.5493727560
 C         -3.0830285261       -0.7549665904        1.2586213461
 C         -3.0916032143        0.3577937178        2.0860728291
 C         -4.2889457000        0.7084405982        2.6791549771
 C         -5.4434716611       -0.0433688746        2.4783181728
 C         -5.4235520938       -1.1890591693        1.7058002001
 C         -4.2332792562       -1.5584220718        1.0967567007
 C         -3.8428603628       -2.6617310071        0.2627001108
 C         -4.5196980505       -3.7606059658       -0.2458858661
 C         -3.8322261100       -4.6463683100       -1.0533467759
 C         -2.4895871388       -4.4426181313       -1.3611899460
 C         -1.7944427845       -3.3541742995       -0.8686915735
 C         -2.4773427710       -2.4689376120       -0.0479573641
 C         -0.8252271334        0.6540522894       -0.2582650182
 N         -2.0341120815        1.3036349269       -0.5441287836
 C         -2.4812044360        2.4684280318        0.0503141935
 C         -1.8013148493        3.3554295986        0.8716030785
 C         -2.4985909066        4.4443167304        1.3601637378
 C         -3.8404460237        4.6465569794        1.0480204486
 C         -4.5250330914        3.7588667274        0.2401594932
 C         -3.8459815664        2.6597414552       -0.2648377866
 C         -4.2327652911        1.5554081632       -1.0991767262
 C         -5.4202059251        1.1854451501       -1.7134239369
 C         -5.4362570306        0.0397536286       -2.4859907940
 C         -4.2805978226       -0.7116064185       -2.6817675717
 C         -3.0859200100       -0.3601199401       -2.0839172687
 C         -3.0813524786        0.7527652495       -1.2565831269
 C          0.3817857201        1.3044454477       -0.4874900413
 C          1.6014886915        0.6827382542       -0.2417254878
 N          2.7676001035        1.2867724178       -0.4596049675
 C          3.9229853269        0.6726401614       -0.2442927286
 C          5.1640656314        1.3259856691       -0.4902587584
 C          5.2061429189        2.6418172286       -0.9823333403
 C          6.4204725726        3.2378947114       -1.2064071413
 C          7.5839655182        2.5039351121       -0.9326288075
 N          7.5686808102        1.2802036462       -0.4758899735
 C          6.4020620087        0.6762374463       -0.2501005013
 H          6.4906840772       -4.2480149875        1.5737572191
 H          8.5632663385       -2.9367242201        1.0854975379
 H          4.2697662243       -3.1454545371        1.1684848396
 H          0.3860839915       -2.2971579617        0.9110804016
 H         -2.1937054106        0.9288877776        2.2673704132
 H         -4.3268955413        1.5829332935        3.3112507800
 H         -6.3629414102        0.2670277390        2.9515765705
 H         -6.3124486241       -1.7880482887        1.5785923109
 H         -5.5629866721       -3.9141160670       -0.0156536684
 H         -4.3410306209       -5.5083511652       -1.4584139944
 H         -1.9809470578       -5.1478084702       -2.0018333060
 H         -0.7571836347       -3.1958280443       -1.1240718107
 H         -0.7643052453        3.1988609808        1.1291665925
 H         -1.9915401401        5.1522488034        1.9991126256
 H         -4.3508752722        5.5094094260        1.4491815110
 H         -5.5679419691        3.9111751274        0.0072187444
 H         -6.3102266586        1.7834397626       -1.5892848478
 H         -6.3537976032       -0.2717128559       -2.9624209769
 H         -4.3156319460       -1.5863295325       -3.3136978862
 H         -2.1867206607       -0.9300739797       -2.2621216560
 H          0.3845955139        2.2993908430       -0.9036319288
 H          4.2695901827        3.1475326150       -1.1684815662
 H          6.4898842116        4.2465408760       -1.5823682304
 H          8.5628948288        2.9355474986       -1.0939650628
