75
 energy: -109.117606640981 gnorm: 0.000080147472 xtb: 6.7.1 (edcfbbe)
C            3.14554278497740        1.05769463376540       -2.16175394246096
C            3.51388535369464        1.66624706047325       -0.79315749351016
C            4.26047472812604        2.97729186879889       -1.03887202763301
C            4.34674035523660        0.65646962046802       -0.02545807295792
C            5.71507987411869        0.75595695093421        0.16317800965324
C            6.41340591947241       -0.21462323276412        0.86319084058163
C            5.73921810011274       -1.28893528468038        1.41687936784451
C            4.37293441662045       -1.40336483246582        1.25239459331966
C            3.67730750572497       -0.45545677335987        0.50702972346730
N            2.28702739006707       -0.51269242393614        0.36628521497226
C            1.55318957493927       -1.64179208019849        0.04827231696852
C            2.06084031378773       -2.91081112255970       -0.17267026550066
C            1.17631799000297       -3.95257114120864       -0.45197541189398
C           -0.21284257634133       -3.72007584016993       -0.54007215875567
C           -1.17593330697982       -4.69816770377755       -0.79710176677648
C           -2.53619037773431       -4.36631606582755       -0.87531236510108
C           -2.94970530862398       -3.06650382543781       -0.73651316717214
C           -2.00312607421488       -2.03813959541381       -0.54529503566815
N           -2.43795721627922       -0.71259649594396       -0.34885874207944
C           -3.06502150819044       -0.39286226652136        0.84774895607414
C           -3.12778962265200       -1.34010329716307        1.87451258889575
C           -3.70243564766855       -1.02830815994602        3.08791039541868
C           -4.20337743472827        0.24314089676212        3.30644953193885
C           -4.13588992859613        1.18890464728225        2.29741540835952
C           -3.58120563661523        0.89527948419221        1.06163044316411
C           -3.58354377875578        1.87198883050527       -0.09335872095343
C           -4.80918375343630        1.52980897517433       -0.97312410673282
C           -3.71305729976790        3.32739803785773        0.35904007152240
C           -2.35674057784162        1.62856395606589       -0.94810319635934
C           -1.72966150023530        2.63333793153452       -1.66450831278500
C           -0.74883651149069        2.35041866967753       -2.60071375445429
C           -0.43873692966937        1.03319067305067       -2.88830524005491
C           -1.03149625709670        0.01505105408341       -2.17397126176338
C           -1.93476604558576        0.30125365131208       -1.14509740803826
C           -0.62687497990656       -2.35551569432904       -0.41333489878108
N            0.24339464557814       -1.38817455744736       -0.17724803430127
C            1.63613408542276        0.71519258872811        0.53478876657767
C            0.45413910855642        0.80676762622971        1.26435899579509
C           -0.16296088589587        2.03043376928682        1.42632279561418
C            0.41146042265676        3.16742567948508        0.88745982736512
C            1.60643534574191        3.08117846785898        0.18903667968472
C            2.23488613740305        1.86329362983831       -0.00036494317739
H            4.05002311311922        0.83660654458269       -2.72535523657271
H            2.54065904379795        1.76426213863628       -2.72539326255658
H            2.57622489163165        0.13971137659563       -2.04467538729894
H            3.63475127907186        3.66359862238707       -1.60357458405944
H            4.54382747583272        3.44689110497470       -0.09950887960939
H            5.15461869427258        2.79600244188788       -1.63008237106690
H            6.25976274831875        1.59518556515503       -0.23807803504010
H            7.48163067541968       -0.12126542720880        0.98794673851905
H            6.27382966012986       -2.03033482591076        1.99166713380747
H            3.83498878966579       -2.20779040327014        1.72917894029119
H            3.11842352229989       -3.10590456233649       -0.12080384252125
H            1.55029031504388       -4.95763659881634       -0.57051225421210
H           -0.85920073341170       -5.71701102547287       -0.96146732498825
H           -3.25945667574357       -5.14564954108897       -1.06392897755927
H           -3.99350468844045       -2.79913098676090       -0.80694419209281
H           -2.70523742240704       -2.32009256902654        1.71820760324776
H           -3.74476494524164       -1.77414213350830        3.86726013220911
H           -4.64432918157735        0.50136289316082        4.25724585421340
H           -4.53219226566451        2.17201999607201        2.49247460909535
H           -4.76039090943661        0.49918870726662       -1.31689962531976
H           -4.83801266573027        2.18169082822370       -1.84361703599219
H           -5.72607798328732        1.66099875979249       -0.40205688755225
H           -2.86743745249181        3.61808889619284        0.97742530762836
H           -4.63196879708471        3.47211002420826        0.92045841915566
H           -3.76524863306273        3.98668342188176       -0.50276994965517
H           -2.00661910906768        3.66305745509802       -1.51048081618368
H           -0.26803014364628        3.15659310636262       -3.13416966980261
H            0.26322780891900        0.79482130896324       -3.67311442946538
H           -0.80685850853759       -1.00842923372029       -2.42115779367049
H            0.03296338620721       -0.07685745489298        1.71634608020976
H           -1.08204392618902        2.09154223694855        1.99043334418656
H           -0.06033661893786        4.13016327480864        1.01714407030569
H            2.03586499411171        3.98433862054323       -0.21367879290697
