75
 energy: -109.119929157970 gnorm: 0.000070487567 xtb: 6.7.1 (edcfbbe)
C            3.77155733109985        2.39345306066485        0.68360830370190
C            3.85263808545511        1.28853910748440       -0.38544638662779
C            5.16852259675214        1.40625564043948       -1.17706112367976
C            2.69357515959698        1.45703611013931       -1.34643903006704
C            2.54100462871167        2.65129282442757       -2.03716703641974
C            1.50509394777739        2.85480000264377       -2.93021496273299
C            0.59328412914175        1.83736562560412       -3.15615192586028
C            0.72496605122213        0.63919157865030       -2.48873427401092
C            1.76359465063245        0.43526130596919       -1.57273012445533
N            1.86481476748326       -0.78255307632811       -0.92694283218703
C            0.78701332201827       -1.69065234030850       -1.04870898337798
C            0.86473240619217       -2.87687511805946       -1.74502527836261
C           -0.24796733370313       -3.71892120533970       -1.78300322056938
C           -1.42726219857377       -3.37353238285557       -1.08395754984391
C           -2.56157476308256       -4.18367602866813       -0.97106020492602
C           -3.65823745016720       -3.78168460179738       -0.20623335516342
C           -3.66729276004407       -2.56009447821094        0.42732385747563
C           -2.56346287061231       -1.70155214209160        0.30895175616956
N           -2.53532113825635       -0.38523478712760        0.82268209904018
C           -1.40756746289678       -0.04105731522102        1.54026388749451
C           -0.67317941816151       -1.05830836103476        2.17820084384373
C            0.51399939585027       -0.78491325669035        2.81526096803119
C            0.98937367751559        0.51655649728864        2.85265695210310
C            0.22965446784701        1.53418624289853        2.30232272537113
C           -0.97402099787080        1.28669384654173        1.65844015524255
C           -1.78548134753756        2.43611990646113        1.10855208114572
C           -2.13342334129390        3.38722498249156        2.26939480309079
C           -0.94485843600262        3.16890807535432        0.04560547141832
C           -3.06245427376806        1.95726996548535        0.45087231995131
C           -3.94879006717405        2.89557970814540       -0.06259418420915
C           -5.09176811593687        2.52897095514607       -0.74673057321752
C           -5.34725903556169        1.18546058560829       -0.96301799244604
C           -4.48525822658202        0.23397267161833       -0.46441725771223
C           -3.35429840267948        0.59638882371576        0.27769639576641
C           -1.41082247188044       -2.12049664272890       -0.40107103203469
N           -0.33523711650870       -1.34069197747142       -0.39236630704876
C            2.83633393301131       -1.01649227205487        0.03014168588200
C            2.83584056270330       -2.22515809459079        0.73491517006435
C            3.79929032381454       -2.49560372660160        1.68109184151305
C            4.78727350080005       -1.56203544907448        1.94462776834779
C            4.78222567872470       -0.36046155022087        1.26155044033282
C            3.81930100853407       -0.05873257199006        0.30784247500950
H            3.80119068950352        3.37918347336769        0.22774011118724
H            4.59893759047165        2.32043121882640        1.38378630637610
H            2.84006802970284        2.29382669221476        1.23646390906134
H            6.02662616657383        1.30150151209451       -0.51866483896780
H            5.21723531449352        0.62398422196623       -1.93213468972662
H            5.23463119601924        2.36925452807250       -1.67617084578640
H            3.24999644948021        3.45048016360092       -1.88119944399340
H            1.41470172426308        3.79681127536755       -3.44929121891278
H           -0.21843303802425        1.97501260794790       -3.85490031635460
H            0.02131249623506       -0.15668511947231       -2.67500841768581
H            1.78055824545795       -3.13757329976453       -2.25301727787389
H           -0.21645752369030       -4.63689758940145       -2.34788268160148
H           -2.55739132649827       -5.15696826125512       -1.43821097556358
H           -4.50229655620055       -4.44675250638537       -0.10036182393818
H           -4.49575033006748       -2.26698774740756        1.05509993978364
H           -1.05730353964497       -2.06651723280041        2.16290174018607
H            1.07609664699574       -1.58250813389405        3.27613216892721
H            1.93413943284943        0.73765020166410        3.32592946832644
H            0.59087918098811        2.54926887161506        2.37642524365170
H           -2.75448515005271        2.87005867965321        2.99833736324577
H           -2.67505105049236        4.25787770946762        1.91157984162034
H           -1.23295586311444        3.73187249787684        2.76957774585797
H           -0.66829578503075        2.47826989932960       -0.74840427995362
H           -0.03294117930509        3.56864302683909        0.48030937186575
H           -1.50471931075080        3.99098147104999       -0.39188556667667
H           -3.73879510863197        3.94684386502644        0.06249022243640
H           -5.76267721755509        3.28422869490193       -1.12669059576127
H           -6.21549152406419        0.87726025676333       -1.52573182171391
H           -4.67944393532886       -0.80670924154131       -0.66325304296229
H            2.06374939249621       -2.95100442949166        0.53429349161119
H            3.77989316769414       -3.43586297342229        2.21185048462506
H            5.55257703862770       -1.76505266101166        2.67839046961976
H            5.55501351064657        0.36040191395304        1.48287918235638
