75
 energy: -109.198189267962 gnorm: 0.000036069926 xtb: 6.7.1 (edcfbbe)
C            3.07722974325775        0.85607479969180       -2.05924041179922
C            3.46251328369470        1.55083396133332       -0.73744908785473
C            4.27803576032767        2.79855546322110       -1.07597107245030
C            4.23764397122590        0.56924798100845        0.12313237816738
C            5.60792505791784        0.61660217984180        0.32720141533494
C            6.24553160332339       -0.32841217332633        1.11390765667716
C            5.51491121407303       -1.32550324187708        1.73484075466072
C            4.14528763284459       -1.38266209558031        1.55884594497645
C            3.51191998456190       -0.45776187453778        0.73725906797968
N            2.11684138948673       -0.46710797098487        0.57725001973553
C            1.38483806796455       -1.55632187046801        0.18895484001981
C            1.98942174666658       -2.81181915458443       -0.11094809057254
C            1.19726915564809       -3.83918886582666       -0.52615890980461
C           -0.19530341350153       -3.64680506552142       -0.69464320671075
C           -1.08960035068403       -4.63727427155165       -1.13549618269652
C           -2.41201239119419       -4.33702377217012       -1.32918322038653
C           -2.89156117170035       -3.03709947349522       -1.10928172904278
C           -2.04918045269481       -2.04747562335235       -0.67386318531189
N           -2.51898017174149       -0.72354111464874       -0.45799087626889
C           -2.93619173534830       -0.39175813015270        0.82814301997856
C           -2.87729058532986       -1.32609091284777        1.86091072268871
C           -3.24793698664072       -0.97837785233335        3.14470672544545
C           -3.66868349082280        0.30985638796572        3.41782221279717
C           -3.74961700156888        1.23520008982312        2.39043919303764
C           -3.40818708925600        0.90236310890309        1.09024374388582
C           -3.59055664205358        1.83399688006737       -0.08919019488320
C           -4.86952701069593        1.39150950700758       -0.83445372197362
C           -3.76624940775114        3.29628236156382        0.31907773240215
C           -2.42277685447761        1.61728058319670       -1.03019233505272
C           -1.81475898386828        2.63712236441168       -1.74143064601367
C           -0.86640188212307        2.37099355646427       -2.71403542853465
C           -0.55301494950618        1.05982655421432       -3.01799096405105
C           -1.12136208897311        0.02852189397425       -2.29817803194372
C           -2.01231529675026        0.29615708388166       -1.26133235876427
C           -0.68192112684253       -2.34227533461758       -0.43064312898412
N            0.09817062508752       -1.35371221376202        0.02037912768111
C            1.52116785333125        0.81446704606505        0.63828751052956
C            0.34988898074968        1.02204698161990        1.35069611423854
C           -0.18854673971120        2.29165943315271        1.42607446252521
C            0.44758167167360        3.34828328030622        0.80121026375224
C            1.62890599229304        3.14091952254750        0.11012046813951
C            2.18504001268774        1.87469542569849        0.01853317418469
H            3.97361735831023        0.55028392310076       -2.59588764146969
H            2.50972185188677        1.54504685503034       -2.68043493466811
H            2.46092839413618       -0.02144080688798       -1.88382493423104
H            3.69435751705365        3.46694758927594       -1.70339631178027
H            4.57436433526205        3.32800078292209       -0.17316550714228
H            5.16832802945447        2.52564737887931       -1.63733971626597
H            6.19990930800882        1.39248219794479       -0.13032184849401
H            7.31525477664938       -0.27664952580368        1.25034025145342
H            6.00644498625449       -2.04919017973770        2.36757214332141
H            3.55856483989543       -2.12999917218429        2.07222404980230
H            3.05833323950338       -2.93227338744761       -0.03954812602408
H            1.62621882577899       -4.80467291313863       -0.75815964781298
H           -0.71583385594742       -5.63392256224245       -1.32351642010136
H           -3.09810651054409       -5.09896736025225       -1.66755219685499
H           -3.93307346620787       -2.81096559699035       -1.28480440116121
H           -2.52920877406667       -2.32775357497452        1.65832143258461
H           -3.19612165980304       -1.71465437026697        3.93351854357588
H           -3.94661163049263        0.59325072376667        4.42198061974395
H           -4.09769184172823        2.22953955630930        2.62124976806290
H           -4.79308755610650        0.35308425369203       -1.14620975405380
H           -5.01787650820908        2.00677247732580       -1.71970841176883
H           -5.73568992584330        1.49413794155647       -0.18350129029412
H           -2.88715116398900        3.66618116735294        0.84085656237975
H           -4.63578772946685        3.40659252963827        0.96231310944427
H           -3.93987966728062        3.91121705122135       -0.56043913601413
H           -2.08377299416920        3.66380421474409       -1.55335573844228
H           -0.40396864141176        3.18454912867690       -3.25308050816985
H            0.14086751532712        0.83292116049946       -3.81462909556994
H           -0.86651594872998       -0.99091825418948       -2.54342277848977
H           -0.13608594252952        0.19528969646521        1.84093431027156
H           -1.09889952274794        2.44661442681212        1.98428532957302
H            0.03085947864527        4.34332076641191        0.85461732439049
H            2.10983161701564        3.98339611808061       -0.35999786978729
