  50
  -80.4756119820000       0.179265921628135      !
 C          6.0766653689       -2.7185409534        0.7770781153
 C          4.8639383666       -3.2166823185        0.2916863188
 C          3.8261106700       -2.3435157966        0.0524625044
 C          4.0207321230       -0.9797110040        0.3147602157
 N          3.0156379262       -0.0525140852        0.1143876815
 C          1.6536993671       -0.2738046574        0.1910504375
 C          0.9465203862       -1.3360758771        0.7183221629
 C         -0.4428849780       -1.3018293921        0.6822391216
 C         -1.1209319681       -0.1878129115        0.1408801366
 N         -2.5140935783       -0.1954218262        0.1072633730
 C         -3.3378676797        0.8413507988        0.5012263443
 C         -3.0087573496        2.0637149150        1.0698773219
 C         -4.0444281992        2.9191758843        1.4053841240
 C         -5.3743150830        2.5659321650        1.1960596991
 C         -5.7102469978        1.3344196351        0.6611729108
 C         -4.6891267556        0.4617826198        0.3152366272
 C         -4.6682368475       -0.8702797747       -0.2255279165
 C         -5.6597122773       -1.7505238625       -0.6327394719
 C         -5.2830574937       -2.9774119064       -1.1508670754
 C         -3.9404604729       -3.3201253048       -1.2811105009
 C         -2.9339487212       -2.4571099293       -0.8825214406
 C         -3.3052706721       -1.2379583424       -0.3336386012
 C         -0.4288434124        0.9140139136       -0.3407839462
 C          0.9697599615        0.8914513863       -0.3092923241
 C          1.9561856894        1.8344673951       -0.6452686688
 N          1.8671194935        3.0790067431       -1.1340459752
 C          2.9801501822        3.7572506213       -1.3371046540
 C          4.2435722476        3.2553471804       -1.0858052866
 C          4.3804284894        1.9566410118       -0.5483532974
 C          3.2295197544        1.2472995918       -0.3397465425
 N          5.2024558297       -0.5023377048        0.7326372755
 C          6.1856548188       -1.3508655000        0.9551300670
 H          6.9072671527       -3.3731650110        0.9839178725
 H          4.7473863092       -4.2709919918        0.0886004723
 H          2.8980801188       -2.6851789466       -0.3766935186
 H          1.4438706759       -2.1675970084        1.1932128652
 H         -1.0139632785       -2.0984756769        1.1299834785
 H         -1.9821262307        2.3369196302        1.2568012580
 H         -3.8140468451        3.8786215111        1.8431130488
 H         -6.1545879702        3.2612775321        1.4671996545
 H         -6.7427640085        1.0540634313        0.5193341897
 H         -6.7011607810       -1.4792685295       -0.5511044855
 H         -6.0402736476       -3.6781583721       -1.4697078195
 H         -3.6772873479       -4.2770434904       -1.7061512963
 H         -1.8953213946       -2.7199983030       -1.0085707421
 H         -0.9457878336        1.7526001069       -0.7776787421
 H          2.8496184630        4.7595350159       -1.7230600330
 H          5.1141321374        3.8590008562       -1.2800247325
 H          5.3462892292        1.5509708027       -0.2944004379
 H          7.1088218780       -0.9024225247        1.2989342497
  50
  -80.4753154504000       0.130984905276619      !
 C          5.8843934593       -2.7180586910        1.2358425985
 C          6.1377836681       -1.3534252413        1.4071881001
 C          5.1967208495       -0.4384048451        0.9897540651
 C          4.0169434043       -0.9082513997        0.3966078171
 N          3.0350882180       -0.0374507432       -0.0358230660
 C          1.6767070614       -0.2721687961        0.0325946870
 C          0.9933867965       -1.3998395540        0.4402528492
 C         -0.3950371216       -1.3793117102        0.4200466243
 C         -1.0895173110       -0.2161971297        0.0210584747
 N         -2.4818734329       -0.2166829238        0.0501965766
 C         -3.2713822122        0.7710597982        0.6069079102
 C         -2.8955488910        1.9196853463        1.2883586495
 C         -3.9004562188        2.7313116687        1.7879720069
 C         -5.2435289579        2.4043077020        1.6271217674
 C         -5.6239235431        1.2439168619        0.9748221932
 C         -4.6345717718        0.4164251858        0.4644154620
 C         -4.6576108902       -0.8458478742       -0.2240331802
 C         -5.6794576384       -1.6700370030       -0.6714863676
 C         -5.3445767003       -2.8303731752       -1.3482651046
 C         -4.0152605611       -3.1605851757       -1.5943482395
 C         -2.9784057837       -2.3524458390       -1.1583469297
 C         -3.3067538186       -1.2031680493       -0.4537281818
 C         -0.4156757467        0.9296961261       -0.3842063759
 C          0.9814251124        0.9152934479       -0.3895550516
 C          1.9601592059        1.8589900642       -0.7501830944
 N          1.8452739363        3.1102435491       -1.2247253759
 C          2.9509674554        3.7493242862       -1.5580096169
 C          4.2176273682        3.2059995862       -1.4567367649
 C          4.3782347260        1.9023897408       -0.9334438102
 C          3.2399874538        1.2440146561       -0.5461427177
 N          3.7630618817       -2.2199967489        0.2696251166
 C          4.6709328122       -3.0827507552        0.6817050770
 H          6.6035715527       -3.4619428913        1.5368184459
 H          7.0509274700       -1.0205681341        1.8777370531
 H          5.3301989057        0.6168706200        1.1656800301
 H          1.5286591908       -2.2745891865        0.7719976283
 H         -0.9545110029       -2.2300411684        0.7728933419
 H         -1.8563509080        2.1686385174        1.4359155927
 H         -3.6344662521        3.6338036948        2.3171111921
 H         -5.9989813964        3.0624653561        2.0294758416
 H         -6.6657844393        0.9825767973        0.8702752161
 H         -6.7118649307       -1.4055542720       -0.5011201989
 H         -6.1259407004       -3.4861691399       -1.7023129189
 H         -3.7863800950       -4.0623807875       -2.1417379949
 H         -1.9513051547       -2.6024833936       -1.3732446887
 H         -0.9504152079        1.7943183123       -0.7424631733
 H          2.8100028293        4.7527262313       -1.9378178693
 H          5.0788363254        3.7711997850       -1.7719954088
 H          5.3613079256        1.4615383851       -0.8780982485
 H          4.4071573800       -4.1238228937        0.5456207884
  50
  -80.4752701272000       0.124851035822616      !
 C          6.1133540969       -2.5094502373        1.2136957949
 C          4.9805091493       -3.1129601048        0.6591160949
 C          3.9334008612       -2.3234835202        0.2384805137
 C          4.0326035461       -0.9334620200        0.3956836770
 N          3.0096516910       -0.0804870514        0.0291304163
 C          1.6490959762       -0.3288849933        0.0668056176
 C          0.9429545894       -1.4060825265        0.5643079382
 C         -0.4470604971       -1.3883741243        0.5014537195
 C         -1.1256024146       -0.2621283718       -0.0074191512
 N         -2.5218117476       -0.2381613595        0.0194263250
 C         -3.2805139170        0.7710380511        0.5762921998
 C         -2.8655807368        1.9148106598        1.2435424029
 C         -3.8423400471        2.7495158378        1.7578016648
 C         -5.1953781185        2.4518423405        1.6213564024
 C         -5.6138296987        1.3009785937        0.9758342397
 C         -4.6531207382        0.4490208521        0.4512984782
 C         -4.7126668948       -0.8158468321       -0.2311020288
 C         -5.7554362460       -1.6177347072       -0.6697844274
 C         -5.4513599773       -2.7898426693       -1.3405445272
 C         -4.1310397454       -3.1587786439       -1.5828267050
 C         -3.0734836696       -2.3751792822       -1.1544350618
 C         -3.3719779717       -1.2075581685       -0.4666342980
 C         -0.4387198228        0.8432977129       -0.4833615716
 C          0.9604295017        0.8229819351       -0.4582226323
 C          1.9384735789        1.7681213473       -0.8062978019
 N          1.8427133958        2.9971528612       -1.3345557472
 C          2.9513029472        3.6736140699       -1.5607678403
 C          4.2166205184        3.1983644925       -1.2680637021
 C          4.3598842622        1.9175606073       -0.6913547634
 C          3.2140004945        1.2036769556       -0.4714619229
 N          5.1457577376       -0.3596902412        0.8782302744
 C          6.1417273365       -1.1272931645        1.2696686094
 H          6.9451251872       -3.0967076734        1.5661320087
 H          4.9337366710       -4.1858427216        0.5453063967
 H          3.0749039892       -2.7524786714       -0.2520668461
 H          1.4355883363       -2.2389238449        1.0406273496
 H         -1.0174922865       -2.2051758152        0.9128001573
 H         -1.8176052486        2.1392041303        1.3680535427
 H         -3.5472229885        3.6460537972        2.2816356637
 H         -5.9282544849        3.1264141996        2.0380827766
 H         -6.6633784855        1.0646357419        0.8893305439
 H         -6.7806752071       -1.3266077937       -0.4990193445
 H         -6.2500005805       -3.4259501176       -1.6919905693
 H         -3.9279752407       -4.0726581246       -2.1206611029
 H         -2.0515357328       -2.6555353049       -1.3579959413
 H         -0.9614898312        1.6924403873       -0.8927078349
 H          2.8168267279        4.6536360653       -1.9991602583
 H          5.0831791980        3.8031549099       -1.4765633228
 H          5.3291675234        1.5242302856       -0.4295110618
 H          7.0036359726       -0.5984143682        1.6562545051
  50
  -80.4752257101000       0.119118568038368      !
 C          6.1258311375       -2.6408104298        0.8602599701
 C          4.9551140623       -3.1706147001        0.3095757509
 C          3.9026251942       -2.3281568451        0.0283122002
 C          4.0395410653       -0.9621706580        0.3153260141
 N          3.0161495056       -0.0645682659        0.0794706410
 C          1.6583841179       -0.3244669090        0.0936706100
 C          0.9555346592       -1.4106300084        0.5768586186
 C         -0.4343244544       -1.3917730831        0.5275020228
 C         -1.1203071341       -0.2701220166        0.0119016163
 N         -2.5130087993       -0.2505801221        0.0241781028
 C         -3.2825152607        0.8179647953        0.4477111611
 C         -2.8863362615        2.0299020463        0.9958773916
 C         -3.8747770597        2.9260497025        1.3654747298
 C         -5.2240914108        2.6216317609        1.2125291174
 C         -5.6263066884        1.3975806858        0.7072338156
 C         -4.6527759024        0.4847843218        0.3282773426
 C         -4.7026961620       -0.8552575173       -0.1897330904
 C         -5.7442005591       -1.7084136339       -0.5224445973
 C         -5.4381698410       -2.9599497509       -1.0275933559
 C         -4.1167466766       -3.3518325780       -1.2205650329
 C         -3.0610367896       -2.5155862249       -0.8982030000
 C         -3.3596269299       -1.2722142841       -0.3591236940
 C         -0.4319679159        0.8380438619       -0.4619465724
 C          0.9650367651        0.8359635473       -0.4044456298
 C          1.9369335067        1.8144825956       -0.6731046331
 N          1.8291075622        3.0738610758       -1.1180932861
 C          2.9266892236        3.7964887336       -1.2317631764
 C          4.1913939200        3.3271473843       -0.9286670984
 C          4.3456266276        2.0114497978       -0.4396547424
 C          3.2114243333        1.2553014806       -0.3244880985
 N          5.1840205515       -0.4532786026        0.7957425417
 C          6.1823341366       -1.2723538952        1.0571920954
 H          6.9653928364       -3.2714363413        1.1020681607
 H          4.8825936983       -4.2257610837        0.0908430496
 H          3.0083186088       -2.6940600462       -0.4498635242
 H          1.4550739019       -2.2475812097        1.0396352735
 H         -0.9980541632       -2.2026161648        0.9583546686
 H         -1.8443691672        2.2659090694        1.1441278777
 H         -3.5900840512        3.8782689390        1.7866887647
 H         -5.9661998478        3.3480962672        1.5079844301
 H         -6.6733733382        1.1531734907        0.6138235749
 H         -6.7696243207       -1.3979393786       -0.3921350688
 H         -6.2348942026       -3.6408215471       -1.2874749260
 H         -3.9096936142       -4.3271617702       -1.6346567065
 H         -2.0409972771       -2.8194133831       -1.0739114731
 H         -0.9517420204        1.6758864731       -0.8966339446
 H          2.7816859686        4.8093541371       -1.5836052735
 H          5.0487882209        3.9684405607       -1.0462807992
 H          5.3101500607        1.6287389009       -0.1479562180
 H          7.0731840023       -0.7985249795        1.4495999397
  50
  -80.4751534999000       0.110355492618874      !
 C          6.0917766172       -2.5099887784        1.2528109393
 C          4.9645718329       -3.1136545620        0.6865054504
 C          3.9244796324       -2.3242934687        0.2490791800
 C          4.0234245409       -0.9335320388        0.4015579029
 N          3.0074956822       -0.0807189442        0.0169185440
 C          1.6456018646       -0.3246010698        0.0383706794
 C          0.9312799071       -1.4000367762        0.5275450689
 C         -0.4577470034       -1.3757273980        0.4543520578
 C         -1.1278677984       -0.2450509943       -0.0565053142
 N         -2.5244176116       -0.2172686038       -0.0250148875
 C         -3.2808849750        0.7778692471        0.5596354903
 C         -2.8640087425        1.9257942473        1.2185170106
 C         -3.8373520818        2.7407605290        1.7694183778
 C         -5.1889040976        2.4203351594        1.6767755025
 C         -5.6087369574        1.2666518956        1.0372848119
 C         -4.6515827992        0.4346852016        0.4757267342
 C         -4.7130527055       -0.8275234060       -0.2115793045
 C         -5.7558084265       -1.6456203078       -0.6191659203
 C         -5.4538046721       -2.8106082835       -1.3031362835
 C         -4.1359772932       -3.1560281206       -1.5900738956
 C         -3.0785837811       -2.3563689418       -1.1927330485
 C         -3.3744231429       -1.1969409493       -0.4897651550
 C         -0.4332932452        0.8567294583       -0.5282891347
 C          0.9661495774        0.8307932681       -0.4914123093
 C          1.9512186663        1.7728962513       -0.8272108760
 N          1.8670612325        3.0044542255       -1.3521896630
 C          2.9802436321        3.6791593531       -1.5585005063
 C          4.2398787594        3.2030639499       -1.2425483656
 C          4.3714375250        1.9176805478       -0.6737943367
 C          3.2213008372        1.2037177132       -0.4788412387
 N          5.1317095173       -0.3605626634        0.8965813500
 C          6.1217621692       -1.1278617841        1.3033078279
 H          6.9177516220       -3.0972911122        1.6185191940
 H          4.9174964096       -4.1868938672        0.5762207284
 H          3.0723373924       -2.7540195172       -0.2517439811
 H          1.4160174594       -2.2357207139        1.0067600901
 H         -1.0351990179       -2.1901184201        0.8606780357
 H         -1.8165087781        2.1674175927        1.3102682511
 H         -3.5404986780        3.6396799934        2.2881883709
 H         -5.9190075495        3.0799032820        2.1215279432
 H         -6.6564669663        1.0131505280        0.9827596010
 H         -6.7796893397       -1.3735822636       -0.4126613919
 H         -6.2524443514       -3.4597738446       -1.6297531761
 H         -3.9352468591       -4.0636679028       -2.1392048788
 H         -2.0590008958       -2.6179398949       -1.4304215736
 H         -0.9490336217        1.7095406537       -0.9389835188
 H          2.8552271762        4.6592200880       -1.9996065023
 H          5.1104147141        3.8084339931       -1.4318320961
 H          5.3356928202        1.5186049629       -0.4016310173
 H          6.9790879084       -0.5984843816        1.6992366927
  50
  -80.4750357022000       9.742218799326650E-002 !
 C          6.1262154963       -1.6768471059        2.2430055766
 C          4.9380305546       -2.4089916173        2.1428087749
 C          3.8819207180       -1.8872028287        1.4309414564
 C          4.0265831376       -0.6255650882        0.8348241254
 N          3.0092481197       -0.0536125272        0.0974224098
 C          1.6455377506       -0.1815490903        0.2899585118
 C          0.9315085730       -0.7803630434        1.3084811290
 C         -0.4580940130       -0.7446606893        1.2666307847
 C         -1.1303744267       -0.1099354068        0.2010161018
 N         -2.5250266284       -0.1075504384        0.1824525021
 C         -3.3507052749        0.1859648152        1.2498995379
 C         -3.0231115086        0.6078586285        2.5308186126
 C         -4.0595069047        0.8655793340        3.4112824546
 C         -5.3897794302        0.7225200326        3.0279172233
 C         -5.7238985374        0.3362539522        1.7416972122
 C         -4.7019321070        0.0717691432        0.8424858961
 C         -4.6786083884       -0.3100705840       -0.5435418581
 C         -5.6703443411       -0.5877428334       -1.4726517775
 C         -5.2929976369       -0.9598968500       -2.7508043756
 C         -3.9497050420       -1.0751390349       -3.0976220603
 C         -2.9431705917       -0.8065134403       -2.1864001694
 C         -3.3148070413       -0.4020315419       -0.9117143596
 C         -0.4318178971        0.5327410496       -0.8104189968
 C          0.9661788680        0.5360085909       -0.7594413355
 C          1.9546227476        1.1280281289       -1.5637731185
 N          1.8753005295        1.9030463814       -2.6548231355
 C          2.9939253750        2.2997812869       -3.2275539001
 C          4.2562939366        2.0184627190       -2.7351447367
 C          4.3833435731        1.2007166101       -1.5921257522
 C          3.2263576449        0.7559564732       -1.0148245521
 N          5.1860835814        0.0474982390        0.8977098064
 C          6.1915892050       -0.4680448795        1.5756989624
 H          6.9669592585       -2.0476370624        2.8054186363
 H          4.8555626072       -3.3824926634        2.6027823189
 H          2.9802195330       -2.4569579332        1.2759103765
 H          1.4188744031       -1.2614588122        2.1413006111
 H         -1.0310283615       -1.2471726784        2.0282821160
 H         -1.9955709378        0.7467029111        2.8284904670
 H         -3.8296235192        1.1902422582        4.4149061284
 H         -6.1711337522        0.9295359954        3.7436958871
 H         -6.7565716772        0.2477985173        1.4404139549
 H         -6.7121924279       -0.5172645065       -1.1996352829
 H         -6.0496101685       -1.1744403220       -3.4904897659
 H         -3.6862581835       -1.3840929489       -4.0979037046
 H         -1.9052419130       -0.9182722540       -2.4583945228
 H         -0.9452334177        1.0794820190       -1.5844155336
 H          2.8724515785        2.8880865985       -4.1275537401
 H          5.1303690275        2.3985272553       -3.2368441926
 H          5.3492286354        0.9181750876       -1.2020700300
 H          7.0921714701        0.1324283151        1.5870243559
  50
  -80.4750221213000       9.603212291406137E-002 !
 C          6.0769028197       -2.4904478083        1.3142810474
 C          4.9623769152       -3.1023963305        0.7323889830
 C          3.9289121583       -2.3195622583        0.2680253117
 C          4.0222108145       -0.9275720633        0.4101039852
 N          3.0078975102       -0.0814202777        0.0056564413
 C          1.6459939680       -0.3240955328        0.0332707274
 C          0.9339981676       -1.3990140814        0.5264597513
 C         -0.4554343550       -1.3754116340        0.4562338740
 C         -1.1262236408       -0.2442503202       -0.0512087076
 N         -2.5232505398       -0.2171580656       -0.0167131771
 C         -3.2788126086        0.7673413330        0.5855688408
 C         -2.8598377961        1.9003569407        1.2683825518
 C         -3.8320742139        2.7052014364        1.8358386517
 C         -5.1841628721        2.3896305351        1.7343095877
 C         -5.6060138118        1.2512803848        1.0690151950
 C         -4.6500859563        0.4289067086        0.4914977943
 C         -4.7122091220       -0.8188822815       -0.2218076707
 C         -5.7548047920       -1.6263247777       -0.6504706282
 C         -5.4521605850       -2.7779616755       -1.3565777271
 C         -4.1338597269       -3.1214828513       -1.6436808024
 C         -3.0764955975       -2.3324453470       -1.2256986777
 C         -3.3733920270       -1.1858129210       -0.5025885129
 C         -0.4340057747        0.8578660383       -0.5255116786
 C          0.9658093762        0.8294594892       -0.4991269408
 C          1.9510120049        1.7664358109       -0.8489246951
 N          1.8673790152        2.9920705894       -1.3877605216
 C          2.9816582000        3.6588600778       -1.6140819592
 C          4.2421283440        3.1804662572       -1.3057138951
 C          4.3735727499        1.9022393135       -0.7205043958
 C          3.2219455628        1.1967552869       -0.5044318832
 N          5.1206248212       -0.3464052853        0.9168819110
 C          6.1042318357       -1.1076359928        1.3496799595
 H          6.8961379818       -3.0722288886        1.7032048105
 H          4.9194256453       -4.1767837392        0.6322328035
 H          3.0865289872       -2.7554946362       -0.2439510618
 H          1.4207683138       -2.2339188134        1.0049350215
 H         -1.0321114868       -2.1906273122        0.8620472525
 H         -1.8116786264        2.1377258459        1.3642646469
 H         -3.5342111263        3.5920053956        2.3745363452
 H         -5.9133723699        3.0402273204        2.1935038242
 H         -6.6542827905        1.0014307493        1.0083996338
 H         -6.7790870363       -1.3563761753       -0.4432169431
 H         -6.2508368086       -3.4181645829       -1.7003707279
 H         -3.9328102018       -4.0186170402       -2.2097232377
 H         -2.0561275564       -2.5914624194       -1.4628667287
 H         -0.9522728483        1.7115057147       -0.9313345265
 H          2.8565860319        4.6334653445       -2.0671179123
 H          5.1135972054        3.7784655146       -1.5131977967
 H          5.3388224265        1.5030532877       -0.4522326810
 H          6.9535319738       -0.5726973637        1.7552466632
  50
  -80.4748215897000       7.767094463436421E-002 !
 C          5.9280047225       -1.4514456858        2.5628793628
 C          6.1628183479       -0.2551934172        1.8823530653
 C          5.2030641678        0.2246540109        1.0172673711
 C          4.0240232360       -0.5129197626        0.8465082942
 N          3.0318324369       -0.0966433383       -0.0232740749
 C          1.6735815817       -0.2397757241        0.1796592516
 C          0.9894923488       -0.9237716457        1.1640998611
 C         -0.3993429234       -0.8794451061        1.1601139843
 C         -1.0938173811       -0.1707688042        0.1565114695
 N         -2.4856018021       -0.1459703747        0.1831851491
 C         -3.2698156399        0.1059166930        1.2923317421
 C         -2.8904450832        0.4414436451        2.5841315721
 C         -3.8917580560        0.6803014516        3.5102815057
 C         -5.2364868814        0.6023047899        3.1606625987
 C         -5.6212628853        0.3001199246        1.8657938785
 C         -4.6352588071        0.0554172592        0.9216344190
 C         -4.6654624366       -0.2488150265       -0.4834938789
 C         -5.6925636114       -0.4503276163       -1.3934809990
 C         -5.3647354645       -0.7661428317       -2.7006670606
 C         -4.0370962816       -0.9015036360       -3.0954826564
 C         -2.9954882103       -0.7075387143       -2.2038840972
 C         -3.3169451343       -0.3577698222       -0.9001817849
 C         -0.4198871968        0.5130388953       -0.8491532679
 C          0.9773849813        0.5080421754       -0.8351888798
 C          1.9526946583        1.0815817733       -1.6707112945
 N          1.8405158534        1.8448972479       -2.7686891576
 C          2.9416907607        2.1495340697       -3.4315106216
 C          4.2081319923        1.7648167061       -3.0393303021
 C          4.3660438547        0.9612397861       -1.8833782240
 C          3.2321632110        0.6550989968       -1.1790130150
 N          3.7835732663       -1.6385229473        1.5341055795
 C          4.7126898159       -2.0808640549        2.3583015587
 H          6.6601174372       -1.8633776346        3.2379370274
 H          7.0781116914        0.2960529295        2.0413844292
 H          5.3269390747        1.1739367139        0.5211712607
 H          1.5207954160       -1.4990052713        1.9032856855
 H         -0.9591424631       -1.4419499017        1.8890240292
 H         -1.8503884581        0.5290367507        2.8569194042
 H         -3.6220333286        0.9387922816        4.5231294030
 H         -5.9890723269        0.7945803800        3.9105114039
 H         -6.6644557618        0.2613830277        1.5920002857
 H         -6.7232871601       -0.3677385043       -1.0843197932
 H         -6.1499068831       -0.9232661030       -3.4249758718
 H         -3.8130795601       -1.1692513128       -4.1168686771
 H         -1.9701988223       -0.8365538203       -2.5131595976
 H         -0.9527344750        1.0935930265       -1.5843688279
 H          2.7960036197        2.7380805773       -4.3275872360
 H          5.0682762580        2.0478295706       -3.6222907526
 H          5.3385034841        0.5710891515       -1.6249057082
 H          4.4630699769       -2.9982198575        2.8761385350
  50
  -80.4746430404000       6.429882107369592E-002 !
 C          5.8258734421       -2.5792577572        1.5437423729
 C          6.0418083076       -1.2011088184        1.6395988005
 C          5.1221902205       -0.3379531410        1.0858316264
 C          3.9992359851       -0.8726128973        0.4398758456
 N          3.0325107503       -0.0521877167       -0.1088552504
 C          1.6731546638       -0.2964558415       -0.0827198658
 C          0.9881552065       -1.4345858946        0.2900776074
 C         -0.4003581770       -1.4178086076        0.2479784577
 C         -1.0890440532       -0.2421501756       -0.1209305001
 N         -2.4813433347       -0.2259802982       -0.0441160728
 C         -3.2241593144        0.7245017160        0.6282320664
 C         -2.7926719142        1.8281366624        1.3497759930
 C         -3.7526800483        2.6003476115        1.9814337538
 C         -5.1047042966        2.2786493258        1.9078440764
 C         -5.5385834876        1.1654892315        1.2082361048
 C         -4.5950876759        0.3778777667        0.5653620501
 C         -4.6726375503       -0.8377584456       -0.1997299428
 C         -5.7256723586       -1.6329525370       -0.6261941450
 C         -5.4421655028       -2.7484774327       -1.3955683471
 C         -4.1338047683       -3.0644335463       -1.7503234623
 C         -3.0663196576       -2.2858662413       -1.3362954705
 C         -3.3424960371       -1.1800790649       -0.5447720012
 C         -0.4143380194        0.9065246928       -0.5134056372
 C          0.9836538274        0.8910765569       -0.5146250613
 C          1.9663445871        1.8354586541       -0.8606107395
 N          1.8622075314        3.0837999723       -1.3467021857
 C          2.9742140193        3.7179973791       -1.6686785337
 C          4.2398840741        3.1827028625       -1.5246858163
 C          4.3896988279        1.8807310829       -0.9922562858
 C          3.2435777063        1.2239693033       -0.6283562513
 N          3.7815019636       -2.1952323035        0.3785664987
 C          4.6702143550       -3.0076249202        0.9170629677
 H          6.5294369939       -3.2847796884        1.9541561266
 H          6.9074354354       -0.8163652022        2.1579048834
 H          5.2236296204        0.7297182790        1.1974285613
 H          1.5228432201       -2.3119734252        0.6158376842
 H         -0.9641441166       -2.2783583176        0.5689428450
 H         -1.7440218844        2.0692176212        1.4283187138
 H         -3.4436410091        3.4646212281        2.5496267121
 H         -5.8240658074        2.9031720375        2.4161503034
 H         -6.5862027387        0.9089403960        1.1695802309
 H         -6.7430467291       -1.3806709240       -0.3689346831
 H         -6.2487588809       -3.3800809052       -1.7367463218
 H         -3.9474054669       -3.9312621051       -2.3662086782
 H         -2.0555444035       -2.5236847099       -1.6292287781
 H         -0.9490832405        1.7803894232       -0.8488968560
 H          2.8395496797        4.7123693628       -2.0736326946
 H          5.1068321061        3.7471314000       -1.8249343657
 H          5.3696847412        1.4345672488       -0.9209099673
 H          4.4388678009       -4.0614289680        0.8277895090
