  57
        -90.44859044
 C         -5.5605892604       -2.5801555974        0.1427932991
 C         -5.6923750173       -1.1974232303        0.1584378901
 C         -4.5657060278       -0.3978672891        0.1202785528
 C         -3.2948812829       -0.9534160271        0.0677924196
 C         -3.1705688631       -2.3444749315        0.0526000554
 C         -4.3093220638       -3.1528435145        0.0902290048
 O         -1.9770554262       -2.9846695795        0.0031734496
 C         -0.8278569842       -2.2584750893       -0.0038347989
 C          0.3766867263       -2.9793325407       -0.0277610858
 C          1.5729065060       -2.3236555302       -0.0270660847
 C          1.6368088246       -0.9035580368       -0.0005182895
 C          2.9104993820       -0.2719897212        0.0089997654
 C          3.1211275211        1.1266750489        0.0388514511
 C          4.3837809235        1.6389691097        0.0463766086
 C          5.5233911551        0.7791872529        0.0257145525
 C          6.8401761512        1.2103506898        0.0365917377
 C          7.8968338643        0.3032796843        0.0156798249
 C          7.6357496029       -1.0587393314       -0.0163106644
 C          6.3387023907       -1.5278794311       -0.0268845633
 C          5.2474401667       -0.6317698117       -0.0048695305
 N          4.0082006527       -1.0703443071       -0.0092387869
 C          0.4123342302       -0.2026182278        0.0154860647
 C         -0.7980302112       -0.8554846883        0.0145726833
 C         -2.0815153760       -0.0610887280        0.0168430268
 C         -2.0953237025        0.9459283553        1.1512733979
 C         -2.0673662010        0.7013770990        2.5060346739
 C         -2.0845134160        1.7855460929        3.3737596747
 C         -2.1279138984        3.0832749877        2.8876839713
 C         -2.1556668669        3.3325314073        1.5246408823
 C         -2.1397520542        2.2557669214        0.6537771938
 C         -2.1641327271        2.1984016107       -0.8000669152
 C         -2.2068584184        3.2028762111       -1.7525321619
 C         -2.2232206236        2.8465285932       -3.0917289654
 C         -2.1976325623        1.5143166728       -3.4748479747
 C         -2.1534039453        0.5021730868       -2.5250745559
 C         -2.1366581596        0.8536137432       -1.1939291362
 H         -6.4373720290       -3.2088629942        0.1721670961
 H         -6.6717820939       -0.7464996024        0.1993271331
 H         -4.6630426856        0.6779793826        0.1305058403
 H         -4.1771729776       -4.2233435074        0.0775830080
 H          0.3234859255       -4.0568801064       -0.0452311084
 H          2.5046836804       -2.8668574077       -0.0448650498
 H          2.2647230816        1.7823198157        0.0541720266
 H          4.5465906940        2.7068346428        0.0671128631
 H          7.0409235121        2.2722446724        0.0632602975
 H          8.9142738353        0.6630354224        0.0251265894
 H          8.4558011754       -1.7617932969       -0.0328889091
 H          6.1265606656       -2.5851019883       -0.0531857355
 H          0.4068276625        0.8763175762        0.0278113048
 H         -2.0319735081       -0.3092993746        2.8861141137
 H         -2.0633296090        1.6151259712        4.4398956477
 H         -2.1406759797        3.9110403360        3.5816378689
 H         -2.1899972763        4.3449621603        1.1504514205
 H         -2.2266371302        4.2419279791       -1.4589301102
 H         -2.2556020883        3.6169032912       -3.8483009976
 H         -2.2106636637        1.2599817366       -4.5242719455
 H         -2.1312226525       -0.5355127477       -2.8251322502
