  57
        -90.44859044
 C         -5.5605892604       -2.5801555974        0.1427932991
 C         -5.6923750173       -1.1974232303        0.1584378901
 C         -4.5657060278       -0.3978672891        0.1202785528
 C         -3.2948812829       -0.9534160271        0.0677924196
 C         -3.1705688631       -2.3444749315        0.0526000554
 C         -4.3093220638       -3.1528435145        0.0902290048
 O         -1.9770554262       -2.9846695795        0.0031734496
 C         -0.8278569842       -2.2584750893       -0.0038347989
 C          0.3766867263       -2.9793325407       -0.0277610858
 C          1.5729065060       -2.3236555302       -0.0270660847
 C          1.6368088246       -0.9035580368       -0.0005182895
 C          2.9104993820       -0.2719897212        0.0089997654
 C          3.1211275211        1.1266750489        0.0388514511
 C          4.3837809235        1.6389691097        0.0463766086
 C          5.5233911551        0.7791872529        0.0257145525
 C          6.8401761512        1.2103506898        0.0365917377
 C          7.8968338643        0.3032796843        0.0156798249
 C          7.6357496029       -1.0587393314       -0.0163106644
 C          6.3387023907       -1.5278794311       -0.0268845633
 C          5.2474401667       -0.6317698117       -0.0048695305
 N          4.0082006527       -1.0703443071       -0.0092387869
 C          0.4123342302       -0.2026182278        0.0154860647
 C         -0.7980302112       -0.8554846883        0.0145726833
 C         -2.0815153760       -0.0610887280        0.0168430268
 C         -2.0953237025        0.9459283553        1.1512733979
 C         -2.0673662010        0.7013770990        2.5060346739
 C         -2.0845134160        1.7855460929        3.3737596747
 C         -2.1279138984        3.0832749877        2.8876839713
 C         -2.1556668669        3.3325314073        1.5246408823
 C         -2.1397520542        2.2557669214        0.6537771938
 C         -2.1641327271        2.1984016107       -0.8000669152
 C         -2.2068584184        3.2028762111       -1.7525321619
 C         -2.2232206236        2.8465285932       -3.0917289654
 C         -2.1976325623        1.5143166728       -3.4748479747
 C         -2.1534039453        0.5021730868       -2.5250745559
 C         -2.1366581596        0.8536137432       -1.1939291362
 H         -6.4373720290       -3.2088629942        0.1721670961
 H         -6.6717820939       -0.7464996024        0.1993271331
 H         -4.6630426856        0.6779793826        0.1305058403
 H         -4.1771729776       -4.2233435074        0.0775830080
 H          0.3234859255       -4.0568801064       -0.0452311084
 H          2.5046836804       -2.8668574077       -0.0448650498
 H          2.2647230816        1.7823198157        0.0541720266
 H          4.5465906940        2.7068346428        0.0671128631
 H          7.0409235121        2.2722446724        0.0632602975
 H          8.9142738353        0.6630354224        0.0251265894
 H          8.4558011754       -1.7617932969       -0.0328889091
 H          6.1265606656       -2.5851019883       -0.0531857355
 H          0.4068276625        0.8763175762        0.0278113048
 H         -2.0319735081       -0.3092993746        2.8861141137
 H         -2.0633296090        1.6151259712        4.4398956477
 H         -2.1406759797        3.9110403360        3.5816378689
 H         -2.1899972763        4.3449621603        1.1504514205
 H         -2.2266371302        4.2419279791       -1.4589301102
 H         -2.2556020883        3.6169032912       -3.8483009976
 H         -2.2106636637        1.2599817366       -4.5242719455
 H         -2.1312226525       -0.5355127477       -2.8251322502
  57
        -90.44834673
 C         -5.5189333821       -2.6138650096       -0.1534040363
 C         -5.6451274072       -1.2526527049       -0.3986204981
 C         -4.5289249920       -0.4385275803       -0.3558682779
 C         -3.2733359749       -0.9599490035       -0.0776875599
 C         -3.1535047951       -2.3309652320        0.1613211155
 C         -4.2822908819       -3.1526958214        0.1245516553
 O         -1.9712528820       -2.9387985499        0.4275241588
 C         -0.8209122609       -2.2167601477        0.3625083232
 C          0.3817339248       -2.9228216367        0.5219775818
 C          1.5791840030       -2.2755649544        0.4273339078
 C          1.6453263977       -0.8788203494        0.1709219931
 C          2.9190143609       -0.2622202695        0.0341411880
 C          3.1277751384        1.1059464864       -0.2596684511
 C          4.3865618692        1.5894120899       -0.4553891489
 C          5.5239180490        0.7318470320       -0.3574904211
 C          6.8369052182        1.1363879118       -0.5357864984
 C          7.8926309924        0.2357839893       -0.4139276376
 C          7.6351439542       -1.0892165094       -0.0947537235
 C          6.3423389999       -1.5289314377        0.1002958848
 C          5.2516084146       -0.6404668944       -0.0251071124
 N          4.0170832246       -1.0496753517        0.1660528078
 C          0.4217741488       -0.1865668477        0.0479835714
 C         -0.7891560932       -0.8320194516        0.1349182848
 C         -2.0746277676       -0.0505327279        0.0115280170
 C         -2.2314579235        0.8941510924        1.1922269757
 C         -2.3507831229        0.5763528111        2.5265476436
 C         -2.4930068689        1.6111639229        3.4415781168
 C         -2.5140966217        2.9321064016        3.0212316459
 C         -2.3931353564        3.2542870169        1.6787850234
 C         -2.2519460312        2.2272121502        0.7606460436
 C         -2.1122919431        2.2478936663       -0.6875723915
 C         -2.0625707737        3.3022375798       -1.5843400468
 C         -1.9152396112        3.0189060394       -2.9329977010
 C         -1.8204149721        1.7097785978       -3.3797917925
 C         -1.8697433187        0.6480411695       -2.4859417476
 C         -2.0152001830        0.9261557434       -1.1450767108
 H         -6.3882360076       -3.2529155709       -0.1817601000
 H         -6.6125589040       -0.8287462014       -0.6190886713
 H         -4.6234704740        0.6218954639       -0.5388951745
 H         -4.1545044847       -4.2067169334        0.3151330456
 H          0.3273899607       -3.9835094867        0.7125535594
 H          2.5097401543       -2.8088154175        0.5428528446
 H          2.2719905384        1.7563041200       -0.3499701478
 H          4.5469094508        2.6289943449       -0.7018008183
 H          7.0363852275        2.1734965893       -0.7665553715
 H          8.9065194292        0.5726980239       -0.5660849066
 H          8.4544312303       -1.7868375045        0.0006614380
 H          6.1318442700       -2.5609595625        0.3327208686
 H          0.4180765822        0.8781620889       -0.1262936585
 H         -2.3350732198       -0.4524759607        2.8562645971
 H         -2.5890222100        1.3834410894        4.4928215439
 H         -2.6265669603        3.7205526549        3.7509995577
 H         -2.4107940353        4.2847735993        1.3563139238
 H         -2.1342231550        4.3234609376       -1.2406128560
 H         -1.8722275001        3.8288149035       -3.6465380329
 H         -1.7056931809        1.5129158065       -4.4353680273
 H         -1.7921810080       -0.3715562945       -2.8344285773
  57
        -90.44832749
 C         -5.7903774495       -1.9652314072       -0.0715621721
 C         -5.6435281542       -0.5935985079       -0.2340400079
 C         -4.3820610696       -0.0291992619       -0.2160884928
 C         -3.2496131903       -0.8120923802       -0.0401825917
 C         -3.4053658173       -2.1909776770        0.1204940189
 C         -4.6803869184       -2.7613934236        0.1040236409
 O         -2.3653651786       -3.0430860722        0.2967089929
 C         -1.0949954341       -2.5591729865        0.2691744964
 C         -0.0576893551       -3.4951244787        0.4015840824
 C          1.2502644190       -3.0982173511        0.3707966435
 C          1.5922322239       -1.7331250090        0.2031423258
 C          2.9260673123       -1.2434206491        0.1463175796
 C          4.0901867228       -2.0366800656        0.2711106139
 C          5.3280095201       -1.4738943194        0.1760512631
 C          5.4800654407       -0.0723704136       -0.0497795676
 C          6.6950624330        0.5849037165       -0.1589332624
 C          6.7550261725        1.9589059228       -0.3787798869
 C          5.5824581757        2.6920687818       -0.4863755566
 C          4.3530773743        2.0758455388       -0.3783544619
 C          4.2618122482        0.6842500927       -0.1575213258
 N          3.0953378816        0.0891166005       -0.0480486572
 C          0.5275827576       -0.8093353209        0.0810177175
 C         -0.7876479363       -1.1988429837        0.1126807623
 C         -1.8871757056       -0.1706175294        0.0044503413
 C         -1.7999043101        0.8119891615        1.1593585612
 C         -1.9457121175        0.5582028688        2.5046308543
 C         -1.8223133657        1.6177643091        3.3936926718
 C         -1.5573268699        2.8996058986        2.9371497244
 C         -1.4101449642        3.1573282783        1.5834318097
 C         -1.5338705415        2.1056330877        0.6911621649
 C         -1.4429336101        2.0633339079       -0.7602792865
 C         -1.1986750018        3.0617879909       -1.6882546596
 C         -1.1730953359        2.7257771452       -3.0325392861
 C         -1.3874035737        1.4194277953       -3.4443758875
 C         -1.6312974349        0.4131083329       -2.5189220767
 C         -1.6569022323        0.7439419402       -1.1826307245
 H         -6.7735021060       -2.4105381814       -0.0822642148
 H         -6.5118066970        0.0321743042       -0.3715681654
 H         -4.2621971726        1.0374630685       -0.3382428957
 H         -4.7649892418       -3.8290775172        0.2323943630
 H         -0.3252948891       -4.5334609990        0.5234375371
 H          2.0244907635       -3.8420559182        0.4705402447
 H          3.9827033323       -3.0969481610        0.4375222660
 H          6.2184390177       -2.0792775247        0.2639375696
 H          7.6076825680        0.0125702528       -0.0683036978
 H          7.7132900246        2.4479555278       -0.4637896008
 H          5.6303447615        3.7576353231       -0.6578665721
 H          3.4351092285        2.6352570913       -0.4679304320
 H          0.7808984171        0.2335117390       -0.0372319006
 H         -2.1506386558       -0.4406255012        2.8623754329
 H         -1.9333668013        1.4401624150        4.4531542083
 H         -1.4642921519        3.7081645229        3.6474549099
 H         -1.2042057336        4.1576777131        1.2328955235
 H         -1.0303453686        4.0805201373       -1.3719817064
 H         -0.9823539345        3.4914804160       -3.7704247193
 H         -1.3618236632        1.1804835366       -4.4972801579
 H         -1.7952949724       -0.6050515976       -2.8412063606
  57
        -90.44820385
 C         -5.7514327736       -2.0201404364       -0.2447901049
 C         -5.6019988471       -0.6702698068       -0.5352725525
 C         -4.3517281400       -0.0846668926       -0.4664210778
 C         -3.2321140358       -0.8267304560       -0.1177841163
 C         -3.3896174202       -2.1857988157        0.1653232406
 C         -4.6537907995       -2.7760828197        0.1027518563
 O         -2.3589405100       -2.9993397778        0.5044269734
 C         -1.0891885485       -2.5146268333        0.4658068557
 C         -0.0538189217       -3.4316474378        0.7026864891
 C          1.2540729476       -3.0374498640        0.6500351275
 C          1.5979721784       -1.6941096500        0.3564746052
 C          2.9332085553       -1.2171015524        0.2511964151
 C          4.0930991413       -2.0091317905        0.4186922321
 C          5.3325023085       -1.4752400527        0.2288585706
 C          5.4907451416       -0.1032117564       -0.1332370799
 C          6.7084341062        0.5245750933       -0.3415235656
 C          6.7756135349        1.8726637548       -0.6842856285
 C          5.6080583893        2.6115214993       -0.8103064265
 C          4.3768271476        2.0254562435       -0.6030866962
 C          4.2781035104        0.6583855830       -0.2614637920
 N          3.1094174362        0.0937867622       -0.0543771787
 C          0.5342631550       -0.7845650895        0.1456416577
 C         -0.7809284064       -1.1722186395        0.1947202208
 C         -1.8858190035       -0.1610975227        0.0048703804
 C         -1.8937984443        0.8171950751        1.1684999624
 C         -2.1285248968        0.5548920003        2.4994859931
 C         -2.0844898043        1.6122898030        3.3985975568
 C         -1.8098581235        2.9003482229        2.9659105465
 C         -1.5736379575        3.1664773068        1.6264729170
 C         -1.6174663264        2.1169429897        0.7242446563
 C         -1.4259876853        2.0829444480       -0.7175227827
 C         -1.1310853104        3.0893883123       -1.6218841820
 C         -1.0077943533        2.7607033675       -2.9625724455
 C         -1.1769741339        1.4540568751       -3.3939904202
 C         -1.4706642706        0.4397318464       -2.4919989583
 C         -1.5919648963        0.7627159963       -1.1589017212
 H         -6.7263990337       -2.4806218582       -0.2923970650
 H         -6.4601594277       -0.0769568833       -0.8106012266
 H         -4.2317852615        0.9666353653       -0.6838218557
 H         -4.7397811180       -3.8272071797        0.3291755345
 H         -0.3225587259       -4.4545351492        0.9174136616
 H          2.0270179679       -3.7675625202        0.8288451868
 H          3.9803324389       -3.0493545252        0.6804924255
 H          6.2187744135       -2.0833203884        0.3374267234
 H          7.6175632910       -0.0487823234       -0.2259436445
 H          7.7352734532        2.3386633949       -0.8480104212
 H          5.6620117192        3.6573953949       -1.0755571872
 H          3.4621175833        2.5862661825       -0.7135590707
 H          0.7892736681        0.2447325233       -0.0571242804
 H         -2.3422674977       -0.4481913563        2.8397328926
 H         -2.2664102658        1.4279738132        4.4470967006
 H         -1.7805813256        3.7072207590        3.6835694710
 H         -1.3610844271        4.1716791710        1.2941748497
 H         -0.9989051686        4.1084585359       -1.2902140373
 H         -0.7766852018        3.5325905464       -3.6821753711
 H         -1.0762298096        1.2212951379       -4.4436451585
 H         -1.5977641680       -0.5787958778       -2.8287437265
  57
        -90.44791446
 C         -5.6641315109       -2.0792580592        0.5972672609
 C         -5.5040159190       -0.7406087476        0.9293889602
 C         -4.2754731853       -0.1296621788        0.7588649017
 C         -3.1877218658       -0.8372737443        0.2682001138
 C         -3.3545725390       -2.1863772257       -0.0550956093
 C         -4.5971248985       -2.8011773153        0.1088341891
 O         -2.3498406250       -2.9659275798       -0.5293591820
 C         -1.0796470882       -2.4788141388       -0.5277189795
 C         -0.0518910776       -3.3820056467       -0.8366622989
 C          1.2573757042       -2.9885487624       -0.8007634446
 C          1.6082754484       -1.6612851493       -0.4506706313
 C          2.9456211712       -1.1924406825       -0.3326461747
 C          4.1030230835       -1.9702098065       -0.5674217377
 C          5.3430460370       -1.4591303866       -0.3242361428
 C          5.5030488733       -0.1258814794        0.1612822241
 C          6.7211929161        0.4770531120        0.4301431374
 C          6.7905543614        1.7889006865        0.8941281104
 C          5.6253561658        2.5187549599        1.0758182313
 C          4.3935486319        1.9596839302        0.8046881331
 C          4.2924954034        0.6290742702        0.3424169141
 N          3.1248009246        0.0924623531        0.0674169662
 C          0.5503389858       -0.7599118540       -0.1830809894
 C         -0.7653729519       -1.1460024008       -0.2178569003
 C         -1.8731337860       -0.1463684154        0.0109367860
 C         -1.5109331717        0.8554238616        1.0852971950
 C         -1.2601247700        0.6201155036        2.4189143832
 C         -0.9183136030        1.6960646395        3.2276440028
 C         -0.8300877867        2.9772211476        2.7049894645
 C         -1.0832511029        3.2179806942        1.3638840798
 C         -1.4255856208        2.1493990802        0.5522001952
 C         -1.7416221227        2.0879492944       -0.8664362857
 C         -1.8141996208        3.0800295312       -1.8298135382
 C         -2.1584052795        2.7244066106       -3.1243149846
 C         -2.4242247690        1.4043256661       -3.4536810817
 C         -2.3510794643        0.4040158232       -2.4932561885
 C         -2.0094452745        0.7555959452       -1.2067347038
 H         -6.6229993801       -2.5585318139        0.7228316634
 H         -6.3376853032       -0.1743216536        1.3149455663
 H         -4.1492355494        0.9143210707        1.0056015115
 H         -4.6921423305       -3.8433674041       -0.1529286324
 H         -0.3252150676       -4.3957068490       -1.0860833306
 H          2.0257585986       -3.7096887274       -1.0290169764
 H          3.9878147274       -2.9843261545       -0.9162791381
 H          6.2280326286       -2.0596599130       -0.4766484211
 H          7.6294382761       -0.0852916615        0.2645841385
 H          7.7507314876        2.2329334573        1.1076701541
 H          5.6805082438        3.5359807926        1.4354481281
 H          3.4799234313        2.5108110686        0.9638012843
 H          0.8113709887        0.2613535092        0.0498774577
 H         -1.3247202071       -0.3783862126        2.8262014758
 H         -0.7159879152        1.5320799626        4.2756925352
 H         -0.5591168369        3.7983091697        3.3526596469
 H         -1.0120444741        4.2171433835        0.9605444314
 H         -1.6091985910        4.1099319450       -1.5783147609
 H         -2.2219508001        3.4857950897       -3.8880152167
 H         -2.6922657152        1.1500041604       -4.4684736900
 H         -2.5593511415       -0.6239475484       -2.7533767572
  57
        -90.44619473
 C         -5.2082577125       -2.7532336160        0.7424064710
 C         -5.2981694365       -1.4476418647        1.2046796934
 C         -4.2615304062       -0.5607797543        0.9772182789
 C         -3.1165871620       -0.9616951880        0.3056752678
 C         -3.0243988012       -2.2836479712       -0.1374039222
 C         -4.0775070967       -3.1732657138        0.0756829147
 O         -1.9252123821       -2.7765437026       -0.7649577569
 C         -0.7733913500       -2.0513305837       -0.7224456415
 C          0.4139390527       -2.7152997385       -1.0621867274
 C          1.6178713240       -2.0876633640       -0.9170177936
 C          1.6991201961       -0.7528812020       -0.4372761030
 C          2.9763797798       -0.1955046413       -0.1564643350
 C          3.1949979660        1.0986315655        0.3719208251
 C          4.4327210681        1.4657103976        0.8088510625
 C          5.5356204526        0.5617991266        0.7279046144
 C          6.8213331022        0.8445557650        1.1578783455
 C          7.8478140720       -0.0903655036        1.0307292273
 C          7.5937927176       -1.3162086281        0.4348778109
 C          6.3310436558       -1.6273415803       -0.0270002558
 C          5.2665190631       -0.7086152590        0.1089461097
 N          4.0614349978       -0.9941900509       -0.3308261520
 C          0.4835769536       -0.0748431265       -0.1994218983
 C         -0.7308726090       -0.7063062869       -0.3199588393
 C         -2.0247574217        0.0205790825       -0.0429662050
 C         -1.8572065091        1.1193011425        0.9811286713
 C         -1.4279515509        1.0091724721        2.2860815415
 C         -1.3135259070        2.1661534250        3.0453574069
 C         -1.6272293282        3.4041458069        2.5046096262
 C         -2.0627270094        3.5187688274        1.1939474087
 C         -2.1745782081        2.3687802845        0.4298952191
 C         -2.5782962637        2.1751313983       -0.9540792024
 C         -3.0153919056        3.0761433030       -1.9104854216
 C         -3.3551502123        2.5986237416       -3.1662508939
 C         -3.2560671376        1.2485956057       -3.4648200932
 C         -2.8169675960        0.3396748390       -2.5110654473
 C         -2.4815494972        0.8115802625       -1.2617388689
 H         -6.0199782341       -3.4448521443        0.9086167676
 H         -6.1794519509       -1.1195832626        1.7339186818
 H         -4.3364681916        0.4605291575        1.3205190088
 H         -3.9763623721       -4.1847950898       -0.2850947006
 H          0.3474885157       -3.7342201890       -1.4110304957
 H          2.5404164763       -2.5944442910       -1.1527328267
 H          2.3589232727        1.7733400861        0.4684998113
 H          4.5953849779        2.4361338069        1.2547553018
 H          7.0263377181        1.8148947103        1.5880047977
 H          8.8369488295        0.1460630239        1.3918309910
 H          8.3901117979       -2.0391158857        0.3337038069
 H          6.1166909581       -2.5913566009       -0.4606936149
 H          0.4954991567        0.9570229091        0.1138912353
 H         -1.1774061800        0.0455010147        2.7050916951
 H         -0.9728237362        2.1010848820        4.0680686456
 H         -1.5284846043        4.2909209160        3.1136281843
 H         -2.3028656017        4.4850335704        0.7760009705
 H         -3.0970635500        4.1281608552       -1.6810052535
 H         -3.7042300539        3.2864949800       -3.9224889502
 H         -3.5273152762        0.8975389297       -4.4494298008
 H         -2.7465103570       -0.7118829619       -2.7487922448
