  130
       -202.51923492
 O         -6.2883847839       -4.9037707466        0.3237200411
 P         -5.8871524580       -3.4908664330        0.2477815220
 C         -4.0996854510       -3.2458121847        0.5242833957
 C         -3.2685966758       -4.1011158087       -0.1884553447
 C         -1.8951267445       -3.9727189429       -0.0947963746
 C         -1.3499771073       -2.9899818281        0.7164846754
 C         -2.1784280105       -2.1464518681        1.4372846610
 C         -3.5543128050       -2.2661693747        1.3415562629
 C         -6.8045980126       -2.4444029191        1.4158440174
 C         -7.8405721152       -1.6228455842        1.0047248238
 C         -8.5953165243       -0.9513047287        1.9507717962
 C         -8.3064972968       -1.0895253712        3.2972969882
 C         -7.2739471328       -1.9174502644        3.7067698472
 C         -6.5318265289       -2.6064574013        2.7669218555
 C         -6.1577926756       -2.8073492848       -1.4190925928
 C         -6.7948144712       -3.5761624716       -2.3783409974
 C         -6.9013865191       -3.1198102497       -3.6809587569
 C         -6.3481610628       -1.8950815164       -4.0287093726
 C         -5.7008988524       -1.1206381689       -3.0835080506
 C         -5.6200601865       -1.5681876805       -1.7697266935
 O         -5.0608532869       -0.8192375472       -0.7726572813
 C         -3.7945769499       -0.3591864390       -0.9182743142
 C         -2.8135089809       -0.9272220282       -1.7524750397
 C         -1.5298960887       -0.4834980770       -1.6931677763
 C         -1.1142736024        0.5845189405       -0.8070897641
 C          0.2199329288        0.9965760783       -0.7048474854
 C          0.6176131634        2.1796075594        0.0170723377
 C          1.9187624368        2.5680941013        0.1095014688
 C          2.9568043545        1.8111578254       -0.4690080687
 C          4.3934850826        2.2546961209       -0.4150036190
 C          5.3475017288        1.0912019964       -0.2706679847
 C          5.0205313495        0.0320528526        0.5706470771
 C          5.8911374411       -1.0226132201        0.7514582438
 C          7.1119912238       -1.0417213640        0.0822281924
 N          7.9872363498       -2.1232105887        0.2451767295
 C          9.3301287924       -2.0392832078        0.5521000867
 C         10.1083856042       -0.9204631653        0.8145718224
 C         11.4400414316       -1.1206598554        1.1254025247
 C         11.9890251809       -2.3994140358        1.1848625263
 C         11.2129644296       -3.5182268302        0.9494540875
 C          9.8729450144       -3.3426529417        0.6350478396
 C          8.7947364887       -4.2519240912        0.3584719767
 C          8.7080761389       -5.6345718450        0.2796731716
 C          7.4893468348       -6.2040914040       -0.0357536776
 C          6.3715993141       -5.4119545244       -0.2866106205
 C          6.4334484505       -4.0332131077       -0.2149236623
 C          7.6488002699       -3.4563363192        0.1266906301
 C          7.4497605107        0.0199320383       -0.7517377604
 C          6.5769294371        1.0782257555       -0.9165105083
 C          4.6194455073        3.0978280809       -1.6582874610
 C          4.5082891406        2.7308530754       -2.9836715680
 C          4.7345131850        3.6890997444       -3.9606912274
 C          5.0524676108        4.9962371819       -3.6166740379
 C          5.1565837944        5.3730478666       -2.2885231485
 C          4.9399325161        4.4193371572       -1.3067948813
 C          4.9924344224        4.5151725359        0.1403783748
 C          5.2904690882        5.5848901123        0.9698270873
 C          5.2698403286        5.3880462028        2.3406640473
 C          4.9603552129        4.1464422190        2.8751618324
 C          4.6615923441        3.0703746996        2.0491020265
 C          4.6750097769        3.2618485969        0.6848273465
 C          2.5956611496        0.6569612260       -1.1977014119
 C          1.2996600044        0.2655886823       -1.3180748398
 C         -2.1667672200        1.1874337040       -0.0289888000
 C         -3.4446439963        0.7296240838       -0.0805690028
 P         -4.8365644499        1.3928786590        0.8904484102
 O         -5.3087287639        0.5315639448        1.9813860927
 C         -6.1029073400        1.7861810236       -0.3567163803
 C         -5.7967838775        2.1622561303       -1.6573779492
 C         -6.8175042289        2.4249908887       -2.5529857051
 C         -8.1398225163        2.3155094180       -2.1529115161
 C         -8.4446886836        1.9478114844       -0.8525587863
 C         -7.4256180569        1.6863222309        0.0452272865
 C         -4.2537828100        3.0126902379        1.4857589132
 C         -4.2752152653        3.2266696780        2.8558834673
 C         -3.8451749741        4.4340776234        3.3776886169
 C         -3.3935950402        5.4293488743        2.5270899039
 C         -3.3768683768        5.2196347889        1.1563492355
 C         -3.8084466040        4.0150470835        0.6328718514
 H         -3.7175270347       -4.8660761187       -0.8084725270
 H         -1.2496451280       -4.6344270577       -0.6544501827
 H         -0.2772765347       -2.8811698084        0.7872696226
 H         -1.7523715363       -1.3804840653        2.0690087762
 H         -4.1993903981       -1.5902939424        1.8817080723
 H         -8.0534425824       -1.5078831999       -0.0498715893
 H         -9.4145185918       -0.3199857001        1.6358850864
 H         -8.8909323581       -0.5535334845        4.0313977315
 H         -7.0526429771       -2.0271532190        4.7585019467
 H         -5.7364901081       -3.2762688176        3.0671480587
 H         -7.1860474293       -4.5382136101       -2.0802139642
 H         -7.4007613351       -3.7182354514       -4.4275369328
 H         -6.4197783662       -1.5395170670       -5.0458402114
 H         -5.2717016389       -0.1645008801       -3.3455217981
 H         -3.0846452821       -1.7410509525       -2.4101992411
 H         -0.8024274129       -0.9397349842       -2.3425567034
 H         -0.1370238994        2.7998121042        0.4731057474
 H          2.1685791822        3.4733247804        0.6446780890
 H          4.0698884676        0.0339700418        1.0839686795
 H          5.6378337867       -1.8303059882        1.4217907321
 H          9.6871983099        0.0732037322        0.7898525462
 H         12.0676908767       -0.2663260722        1.3307498348
 H         13.0345847967       -2.5139767243        1.4286144564
 H         11.6349235746       -4.5098171841        1.0122913737
 H          9.5779027617       -6.2483389988        0.4581715807
 H          7.3997441207       -7.2782106305       -0.0988903246
 H          5.4362764456       -5.8852507423       -0.5457281672
 H          5.5659242021       -3.4274266949       -0.4286110857
 H          8.3889254899        0.0020106097       -1.2842588219
 H          6.8487394411        1.8965685664       -1.5668239504
 H          4.2566804217        1.7180120627       -3.2604548572
 H          4.6613999328        3.4146776472       -5.0027551409
 H          5.2190231530        5.7260175730       -4.3954428628
 H          5.4020957616        6.3904354186       -2.0223915476
 H          5.5338679376        6.5520488394        0.5558795638
 H          5.4984490366        6.2106325280        3.0025514718
 H          4.9510921434        4.0135056703        3.9469261628
 H          4.4215911447        2.1064878828        2.4726484000
 H          3.3756999190        0.0636519160       -1.6546823217
 H          1.0832810889       -0.6411563862       -1.8586016097
 H         -1.9416702677        2.0086846343        0.6326144630
 H         -4.7635148028        2.2322495260       -1.9712320449
 H         -6.5833291251        2.7122302673       -3.5683750111
 H         -8.9328011630        2.5156743103       -2.8585740679
 H         -9.4763031257        1.8645046773       -0.5427877104
 H         -7.6305322092        1.3861482659        1.0623960259
 H         -4.6313574777        2.4320636566        3.4955354165
 H         -3.8605689384        4.5994381547        4.4449866687
 H         -3.0545737529        6.3724141438        2.9304210645
 H         -3.0250920492        5.9987686655        0.4956074648
 H         -3.7964891962        3.8493377110       -0.4344452020
