62
 energy: -93.485000296307 gnorm: 0.000127550325 xtb: 6.7.1 (edcfbbe)
C            3.02070942759427       -4.48633724040952       -0.21399401645519
C            1.72387284012048       -4.53154743668076       -0.63161865593754
B            0.80023288765113       -3.36621785181191       -0.31464684015797
C            1.46312475912611       -2.15436319231217        0.34223137971787
C            0.73962058880616       -0.95037857124392        0.37638362605039
C           -0.68339590705073       -0.94766193440493        0.28202628963847
C           -1.36878164803291        0.27463867092100        0.36694874545290
C           -2.71429678519413        0.45045306060356       -0.04912442407583
C           -3.45128933321411        1.55643146467509        0.27955413092732
C           -4.82915586097586        1.74454289274059       -0.17998714238542
C           -5.69034248910048        0.65658030533156       -0.32342814381355
C           -6.99220947543176        0.84301588579355       -0.74888482303352
C           -7.45447226925908        2.11502642585808       -1.04603098851777
C           -6.60600340787613        3.20224495822337       -0.91246760493201
C           -5.30610405442306        3.02112951053219       -0.47880643676685
C           -2.81814023720334        2.52882291172186        1.10563889853085
C           -1.48809546386979        2.43712637008541        1.33204461476022
N           -0.73060892628065        1.40240892191915        0.86212999271176
C            0.65380777678136        1.49621044674301        0.75749797689064
C            1.31917099625844        2.72046309550490        0.88172480903488
C            2.66266048494701        2.82347014091372        0.60867872644523
C            3.38023468014975        1.72301231436488        0.12871430517499
C            4.79101176344540        1.85551413249051       -0.26152160354198
C            5.70162469944483        0.83736019893873        0.01601621798157
C            7.03135182915451        0.96483301776122       -0.34061257851364
C            7.47402622965186        2.10815929471456       -0.98552827900719
C            6.57693184408456        3.12419685492978       -1.27152536434464
C            5.24769916766784        3.00102220838533       -0.91140939832405
C            2.72290075782139        0.50932627735336        0.01912182608195
C            1.38605954543021        0.34622199185621        0.39908095094055
C           -1.41433213269067       -2.19667502421375        0.11937896729544
C           -2.74886465815522       -2.33048331546891        0.53011358850018
C           -3.46184100142196       -3.48192265827503        0.27785600412913
C           -2.85195114621610       -4.54645110202263       -0.37635917236278
C           -1.50461369159031       -4.47763316034415       -0.65644740553341
C           -0.74249072476092       -3.33648167157326       -0.38300248034693
C            2.79862221662139       -2.27929892144671        0.79558423425254
C            3.53451203104082       -3.39918827608627        0.53300761373978
H            3.69633653735118       -5.31765633536648       -0.40004988781534
H            1.40304084528535       -5.43876775403722       -1.13624913048703
H           -3.13102333640476       -0.30964754708387       -0.68932689791980
H           -5.34541425138427       -0.33663532581859       -0.07874489515600
H           -7.65041160763213       -0.00803223868268       -0.84787486595290
H           -8.47180027846334        2.25829923779926       -1.37940954364389
H           -6.95999800946111        4.19553926162201       -1.14766916259887
H           -4.64689250755030        3.87253234180844       -0.39568437487333
H           -3.38300112685557        3.34413543323479        1.52422800917963
H           -0.97115067076112        3.18738376557577        1.90612129603646
H            0.78731426992198        3.61750920611649        1.15305925469833
H            3.15794535364378        3.77440616396642        0.73147200742270
H            5.36832177941767       -0.05148990567748        0.53116116657747
H            7.72568965120802        0.16857104931721       -0.11311397972161
H            8.51292150275772        2.20619048951362       -1.26495129623575
H            6.91507265584162        4.01577545275911       -1.77999266005889
H            4.55224847547635        3.79056058982237       -1.15635780296133
H            3.23699118988750       -0.33210688248324       -0.41687778143599
H           -3.21844540068750       -1.54433877078447        1.10484516480180
H           -4.49083899111066       -3.56336048588365        0.60106473065202
H           -3.41813883419675       -5.43931040697100       -0.60511814073323
H           -1.00561251022213       -5.34116170254526       -1.07393589626647
H            3.22787726173127       -1.51071136599135        1.43126187992403
H            4.54381801528694       -3.47947374555289        0.91997895431888
