62
 energy: -93.484973272237 gnorm: 0.000061466769 xtb: 6.7.1 (edcfbbe)
C            2.88625148015209       -4.57231064896379       -0.22187045784147
C            1.58886168539173       -4.57842916918381       -0.64028893288938
B            0.69722374774677       -3.39112220307719       -0.31358781407631
C            1.39330521695323       -2.20303792804772        0.35214696424909
C            0.70438142058390       -0.97892630006042        0.39039342839084
C           -0.71829880490137       -0.93608828784343        0.29882324741627
C           -1.36980474348609        0.30412315966336        0.38892741213757
C           -2.71530820959419        0.51449126185172       -0.01206768778452
C           -3.42125643803395        1.63677767643392        0.32875450556222
C           -4.80406141844209        1.85471361320922       -0.10243099192071
C           -5.69419592152505        0.78657797210502       -0.21407302360256
C           -7.00276366300275        1.00128270792528       -0.60426224158890
C           -7.44267749201835        2.28194612849577       -0.89818557832139
C           -6.56493239208804        3.34929840614793       -0.79758633799431
C           -5.25811578635618        3.14010262421770       -0.39865913171993
C           -2.75330912104901        2.59440113663572        1.14436531848292
C           -1.42315547934631        2.46979473817773        1.35389248799066
N           -0.69792226616468        1.41482568609162        0.87825963363698
C            0.68831003769482        1.46956197957070        0.76954077962389
C            1.38802261009500        2.67494444807558        0.89022891933654
C            2.73558262935446        2.73791880067259        0.62509505585823
C            3.42412377665706        1.61485498653134        0.15513556321042
C            4.84329217586353        1.70211781840702       -0.21711624960436
C            5.71728459218417        0.65666411888210        0.07648786796833
C            7.05598722179879        0.74220923563909       -0.25836360945824
C            7.54436874903683        1.87026973822146       -0.89714173442912
C            6.68387943447994        2.91284115052774       -1.19968252433789
C            5.34566241685747        2.83142559072355       -0.86155933894700
C            2.73101893951007        0.42163661225521        0.04160799568427
C            1.38793131817687        0.29831373765713        0.41486021828380
C           -1.48303671543879       -2.16478709404214        0.13469380682776
C           -2.81799854392800       -2.26635179965603        0.55282308072689
C           -3.56263458924786       -3.39685410789231        0.29704297703354
C           -2.98490153161527       -4.47245547511720       -0.36814343493393
C           -1.63766876128764       -4.43755944048362       -0.65498254658841
C           -0.84417076576533       -3.31888049837385       -0.37805233737116
C            2.72381842776615       -2.36901787643855        0.80670108207481
C            3.42879445287272       -3.50668265124785        0.53570969224223
H            3.53879485033932       -5.42037383355562       -0.41479476258550
H            1.24350538013726       -5.47213550574684       -1.15279289324220
H           -3.15881872157636       -0.23385869638617       -0.64808379660815
H           -5.36604734471268       -0.21274165665795        0.02885761587077
H           -7.68389380473895        0.16584338642058       -0.67779306544381
H           -8.46532605452902        2.44719514815223       -1.20396571947297
H           -6.90155099785268        4.34905013547564       -1.03088083381305
H           -4.57640072466431        3.97567407155028       -0.34000331284560
H           -3.29255052529757        3.42403843135365        1.56863133563764
H           -0.88064442859348        3.20772753579261        1.92022570191263
H            0.88071848941842        3.58834522493581        1.15393039609226
H            3.25740596301780        3.67464710293876        0.74722578158653
H            5.34842819453583       -0.22036257039374        0.58761516129536
H            7.72169967948718       -0.07451847914631       -0.01812993801721
H            8.59043353388719        1.93588977779609       -1.15875570537010
H            7.05780336875306        3.79268354678854       -1.70353250936768
H            4.67887120038961        3.64133045225902       -1.11937446894325
H            3.22244489315999       -0.43498854754962       -0.39086585464819
H           -3.26274381803954       -1.47240010830059        1.13651246164803
H           -4.59148948722515       -3.45354450624428        0.62593585662565
H           -3.57583462063168       -5.34829383687008       -0.60015089126286
H           -1.16399519918203       -5.31112152473023       -1.08107000533643
H            3.17253607568472       -1.61831579389719        1.45029730093509
H            4.43477240833645       -3.61835960168429        0.92352208199684
