  97
       -148.19784759
 C         -0.8826891120       -0.0990417260        3.1169277405
 C         -0.6723057773       -1.5669234404        2.7662188686
 C          0.7969221121       -1.8866224451        2.5012132510
 C          0.9995971874       -3.3401998677        2.0782461509
 C          2.4469597712       -3.6170141910        1.6772674914
 C          2.6807167353       -5.0125281167        1.0948677900
 C          1.8773119677       -5.3611508475       -0.1613682060
 C          2.0924714969       -4.4287337823       -1.3586483311
 N          1.3445413878       -3.1964279934       -1.2552671717
 C         -0.0392347277       -3.1363105087       -1.2382550303
 O         -0.7596671622       -4.1070079872       -1.3698927235
 C         -0.3611613517       -1.7175414180       -1.0437908317
 C         -1.5179559600       -0.9444334339       -0.8538197921
 C         -2.8882753648       -1.2808480338       -0.7554303881
 C         -3.3522070099       -2.6114644284       -0.8857843631
 C         -4.6915527335       -2.8978891163       -0.7537436143
 C         -5.6180527357       -1.8999325131       -0.4823632440
 C         -5.1773898913       -0.5756188635       -0.3642010534
 N         -6.0934333262        0.4424699113       -0.0662253134
 C         -7.2961135035        0.6634711676       -0.7020456755
 C         -7.8578012210        0.0008900039       -1.7854503095
 C         -9.0820264729        0.4455517713       -2.2484340054
 C         -9.7309711711        1.5290777858       -1.6619188122
 C         -9.1634812721        2.2102066848       -0.6002051720
 C         -7.9370255505        1.7810686973       -0.1165164360
 C         -7.0650805992        2.2486991869        0.9276473489
 C         -7.1477158450        3.2823015560        1.8482402212
 C         -6.1129618918        3.4485882592        2.7504947145
 C         -5.0171164822        2.5888442520        2.7519369101
 C         -4.9126536173        1.5516651795        1.8444012926
 C         -5.9364044806        1.3957317246        0.9191017873
 C         -3.8403744123       -0.2717618674       -0.5084660236
 S         -1.0320733818        0.7443004069       -0.6372844812
 C          0.6969908829        0.3799638289       -0.7364213383
 C          1.6391215892        1.3940998637       -0.4774994654
 C          1.2227120848        2.7169328914       -0.1742023029
 C          2.1404964291        3.6927580589        0.1303447081
 C          3.5003648929        3.4102232955        0.1599636959
 C          3.9308114142        2.1129219839       -0.1565606169
 N          5.2943242918        1.7971422333       -0.0988991730
 C          6.3215180015        2.5221691144       -0.6604621856
 C          6.2707600727        3.6716180669       -1.4380659284
 C          7.4657902410        4.1917326182       -1.8991628883
 C          8.6828503540        3.5823227074       -1.6086911395
 C          8.7375920515        2.4201771956       -0.8590596409
 C          7.5528798028        1.8808442909       -0.3848171248
 C          7.2348462992        0.7044907905        0.3813421702
 C          8.0029968916       -0.3034547355        0.9422880803
 C          7.3626282907       -1.3080509569        1.6472289411
 C          5.9801200471       -1.3005171565        1.8107294705
 C          5.1942557608       -0.3031906657        1.2650907801
 C          5.8278487836        0.6906329182        0.5293810655
 C          3.0238009155        1.1287753197       -0.4856472695
 C          0.8429923204       -1.0024619923       -0.9884983259
 C          1.9427656206       -1.9440762504       -1.1631395601
 O          3.1482639524       -1.7755082883       -1.2305733339
 H         -1.9333172645        0.0988774677        3.3191660006
 H         -0.5639997399        0.5403777066        2.2959818056
 H         -0.3074364284        0.1686273688        4.0008349375
 H         -1.2596365802       -1.8144233766        1.8778885890
 H         -1.0356508610       -2.1941232824        3.5838496539
 H          1.3842111996       -1.6784997790        3.3993609255
 H          1.1662451637       -1.2284522584        1.7096021578
 H          0.3318415163       -3.5516606041        1.2420746734
 H          0.7140665917       -4.0046193147        2.8976976186
 H          3.0801134442       -3.5088436501        2.5628257041
 H          2.7788041171       -2.8669304457        0.9603513723
 H          3.7449786799       -5.1046344622        0.8620635283
 H          2.4442197361       -5.7594465082        1.8577169783
 H          0.8114092387       -5.3957940819        0.0638510139
 H          2.1716619385       -6.3654677713       -0.4742726792
 H          3.1445106937       -4.1476186818       -1.4527027384
 H          1.7727708557       -4.9443344305       -2.2705249724
 H         -2.6476654383       -3.4008591037       -1.0885765463
 H         -5.0274729319       -3.9196747302       -0.8482979221
 H         -6.6592078563       -2.1363112259       -0.3279204052
 H         -7.3501188681       -0.8240122235       -2.2613964989
 H         -9.5419894910       -0.0544272497       -3.0875888036
 H        -10.6866312455        1.8461493043       -2.0518018163
 H         -9.6598881739        3.0609457146       -0.1583855418
 H         -8.0048896563        3.9378596094        1.8604824226
 H         -6.1571918921        4.2490883494        3.4737157130
 H         -4.2315064631        2.7339885005        3.4786000346
 H         -4.0658718558        0.8832311147        1.8617860026
 H         -3.5188304839        0.7565692096       -0.4441489619
 H          0.1680253499        2.9467444689       -0.1815502667
 H          1.8021623157        4.6908586002        0.3659890712
 H          4.2153084125        4.1603691984        0.4588482901
 H          5.3298749700        4.1359117451       -1.6890072680
 H          7.4540597929        5.0874934929       -2.5018777346
 H          9.5952850487        4.0191412485       -1.9856243524
 H          9.6810335946        1.9370772742       -0.6548987956
 H          9.0766764237       -0.3023928401        0.8299569049
 H          7.9424594212       -2.1070856213        2.0847649710
 H          5.5098944756       -2.0902030139        2.3767654355
 H          4.1260553536       -0.3011123299        1.4102346155
 H          3.3789935904        0.1506557477       -0.7641274193
