  44
  -70.0438122950000       0.200604647631549      !
 C          6.4459488909       -1.0153722173        0.2787056775
 C          6.0528110386       -1.5596518280       -0.9339372764
 C          4.8591376783       -1.1691890461       -1.5103366186
 C          4.0605076992       -0.2158954156       -0.8917637051
 C          4.4538624735        0.3289645665        0.3232772249
 C          5.6436018878       -0.0835718372        0.9094834173
 S          3.5178572228        1.5823335906        1.1580973198
 C          1.8567851554        1.0512927702        0.8388295803
 C          0.9155035026        1.2329327439        1.8442795130
 C         -0.4070323192        0.8977045928        1.6333564207
 C         -0.8076096736        0.3440728287        0.4201151055
 C         -2.2238918939       -0.0140159597        0.1846308113
 C         -2.6240801141       -1.3553024662        0.2520034035
 C         -1.7134614057       -2.4032426482        0.5475036643
 C         -2.1297574119       -3.6976290160        0.6107187299
 C         -3.4827266115       -4.0281692730        0.3874703807
 C         -4.3885536434       -3.0523680702        0.1085159455
 C         -3.9966119685       -1.6911153477        0.0322357586
 C         -4.9117625204       -0.6811999551       -0.2469629433
 C         -4.5217044052        0.6521434736       -0.3220400873
 C         -5.4483431850        1.6852243683       -0.6159566905
 C         -5.0484524083        2.9829266517       -0.6981400800
 C         -3.6949757336        3.3228725876       -0.4931788957
 C         -2.7752859677        2.3616594811       -0.2050927536
 C         -3.1514054133        0.9967423459       -0.1031221758
 C          0.1404923962        0.1371949427       -0.5723037332
 C          1.4639813728        0.5034872129       -0.3749022640
 S          2.5829103440        0.2861693530       -1.7336720903
 H          7.3764783360       -1.3162146763        0.7347053889
 H          6.6738534714       -2.2885421143       -1.4314556656
 H          4.5374193994       -1.5816462513       -2.4544618821
 H          5.9349345639        0.3496345644        1.8541436142
 H          1.2333171993        1.6586974657        2.7837362852
 H         -1.1368649050        1.0597321000        2.4121893351
 H         -0.6775662929       -2.1532763450        0.7248154643
 H         -1.4260911444       -4.4856927156        0.8356922739
 H         -3.7891899764       -5.0624047602        0.4441169828
 H         -5.4283257704       -3.2942587503       -0.0600276519
 H         -5.9490042089       -0.9386287120       -0.4114163182
 H         -6.4819158541        1.4132067228       -0.7766729993
 H         -5.7599403938        3.7637969559       -0.9235360725
 H         -3.3948797879        4.3576154856       -0.5694249352
 H         -1.7386308216        2.6253921995       -0.0546192630
 H         -0.1506371780       -0.2894326195       -1.5204342077
  44
  -70.0434089906000       0.130916721628209      !
 C          6.2333781814        1.6067231888       -0.7521964522
 C          5.8538913807        1.0703964440       -1.9728661401
 C          4.7611034122        0.2275034067       -2.0473629287
 C          4.0511856092       -0.1007272465       -0.8997604725
 C          4.4300909587        0.4384380452        0.3223624743
 C          5.5173466022        1.2995856001        0.3891506534
 S          3.5938943373        0.0414758868        1.8347148243
 C          1.9084240900        0.0205634269        1.2837289358
 C          0.9412537841        0.5486897534        2.1286958065
 C         -0.3918746035        0.5120262117        1.7723207410
 C         -0.7804505530       -0.0430312172        0.5558233309
 C         -2.2107138420       -0.0865908331        0.1767296490
 C         -2.9394861323       -1.2700544139        0.3544014708
 C         -2.3498926227       -2.4495192096        0.8797961828
 C         -3.0833391683       -3.5832312877        1.0511817348
 C         -4.4522700547       -3.6106745832        0.7118167868
 C         -5.0552589658       -2.5004906492        0.2073272223
 C         -4.3274290022       -1.2986913878        0.0114555850
 C         -4.9297175586       -0.1532362265       -0.4993358821
 C         -4.2109566845        1.0229968820       -0.6874130758
 C         -4.8167187522        2.1923568148       -1.2146830975
 C         -4.0978076975        3.3327057271       -1.3975549363
 C         -2.7278112941        3.3697593156       -1.0636551938
 C         -2.1100069895        2.2701272715       -0.5521542836
 C         -2.8239654450        1.0614322857       -0.3422432264
 C          0.1902295426       -0.5514048149       -0.2957720069
 C          1.5295555262       -0.5275546635        0.0657171832
 S          2.7019672677       -1.2411687393       -1.0582339226
 H          7.0862779358        2.2644222638       -0.6878469229
 H          6.4087036208        1.3069213978       -2.8677433073
 H          4.4532181913       -0.1996738175       -2.9895376911
 H          5.7986752509        1.7080066361        1.3475507352
 H          1.2494194172        0.9730992509        3.0720131594
 H         -1.1411147285        0.9121841136        2.4383017522
 H         -1.3029499422       -2.4300569254        1.1453869797
 H         -2.6224941516       -4.4743918880        1.4511997932
 H         -5.0138412709       -4.5215427206        0.8591742119
 H         -6.1040769491       -2.5103791580       -0.0534764811
 H         -5.9797632947       -0.1778571499       -0.7562588617
 H         -5.8659759168        2.1527111231       -1.4706845840
 H         -4.5659365143        4.2182254336       -1.8017451768
 H         -2.1725573134        4.2830516417       -1.2201224554
 H         -1.0595571013        2.2998163092       -0.3012094034
 H         -0.0912623700       -0.9821478059       -1.2448807861
  44
  -70.0433863001000       0.127810722395725      !
 C          6.1766884404        1.5708434930       -0.9022530708
 C          5.8034811355        0.8986570763       -2.0557276834
 C          4.7330149987        0.0248585697       -2.0304472908
 C          4.0400744745       -0.1976305272       -0.8478945391
 C          4.4123642981        0.4776803192        0.3068775628
 C          5.4767823099        1.3686141058        0.2722415719
 S          3.5904007763        0.2221914674        1.8576366331
 C          1.9044783911        0.1297221282        1.3153279585
 C          0.9320300455        0.7444011355        2.0931087520
 C         -0.3983537684        0.6720761310        1.7321139826
 C         -0.7798814385       -0.0076487703        0.5777084829
 C         -2.2026430923       -0.0746531440        0.1807182650
 C         -2.9120775026       -1.2752876608        0.3244540058
 C         -2.3157901913       -2.4498898249        0.8532364629
 C         -3.0306390972       -3.6004234006        0.9874196487
 C         -4.3876867525       -3.6513626834        0.6064966030
 C         -4.9989228936       -2.5450658999        0.1037733949
 C         -4.2907537177       -1.3258256187       -0.0519418500
 C         -4.9055681217       -0.1836019479       -0.5546145489
 C         -4.2079329088        1.0105582550       -0.7050847660
 C         -4.8284324462        2.1759954098       -1.2240079807
 C         -4.1298436061        3.3331589963       -1.3777524335
 C         -2.7652978029        3.3895483296       -1.0253842135
 C         -2.1343378302        2.2941034977       -0.5205212264
 C         -2.8287286046        1.0702945435       -0.3328137372
 C          0.1964084494       -0.6101908252       -0.2041289247
 C          1.5324898661       -0.5491687639        0.1627959246
 S          2.7151058898       -1.3767881059       -0.8688575901
 H          7.0102593954        2.2560983669       -0.9168408591
 H          6.3431019376        1.0567478247       -2.9767868129
 H          4.4287447806       -0.5059221716       -2.9194856885
 H          5.7541567118        1.8835869406        1.1792481268
 H          1.2337220148        1.2668839523        2.9879559328
 H         -1.1512081082        1.1439832575        2.3454124421
 H         -1.2788376024       -2.4144371600        1.1533806575
 H         -2.5638728116       -4.4868338348        1.3911340474
 H         -4.9340306869       -4.5758387279        0.7229042159
 H         -6.0401163905       -2.5706990468       -0.1847601540
 H         -5.9487763853       -0.2251605270       -0.8358480979
 H         -5.8724339593        2.1194510652       -1.4977661262
 H         -4.6090089564        4.2159440386       -1.7750316066
 H         -2.2234523446        4.3137305850       -1.1640899539
 H         -1.0871910480        2.3408401886       -0.2593508617
 H         -0.0785733139       -1.1396635806       -1.1039986758
  44
  -70.0433389952000       0.121570292803673      !
 C          6.4552965711       -0.9875604638        0.2303086340
 C          6.0666287899       -1.4877143285       -1.0023767541
 C          4.8703858755       -1.0847114913       -1.5643199661
 C          4.0642034690       -0.1620588052       -0.9101787956
 C          4.4546429611        0.3403537121        0.3238670392
 C          5.6466413111       -0.0855263708        0.8950934266
 S          3.5096553507        1.5560349370        1.2026234193
 C          1.8540649080        1.0138814916        0.8725108569
 C          0.9170237481        1.1419885239        1.8898148941
 C         -0.4031126394        0.8027959614        1.6707309000
 C         -0.8043157997        0.3002519835        0.4357881875
 C         -2.2229468904       -0.0426334553        0.1881011614
 C         -2.6470418110       -1.3749799517        0.2721787508
 C         -1.7570189382       -2.4328640379        0.5938877164
 C         -2.1961225996       -3.7187233207        0.6733728772
 C         -3.5520210794       -4.0297520663        0.4390481747
 C         -4.4378900283       -3.0438910978        0.1327610426
 C         -4.0223186572       -1.6907033118        0.0400587390
 C         -4.9162463490       -0.6697510255       -0.2665330188
 C         -4.5024094259        0.6556119990       -0.3557011313
 C         -5.4072306478        1.7010828479       -0.6729834806
 C         -4.9838766377        2.9907066616       -0.7645309320
 C         -3.6275568215        3.3102015346       -0.5454369214
 C         -2.7282032810        2.3366719368       -0.2357615593
 C         -3.1291005543        0.9795129566       -0.1251170041
 C          0.1407307127        0.1413638315       -0.5680348696
 C          1.4621321723        0.5104935999       -0.3605482893
 S          2.5796969818        0.3577398197       -1.7289149944
 H          7.3869055215       -1.3003088411        0.6759311249
 H          6.6932034276       -2.1927814633       -1.5263966795
 H          4.5526129844       -1.4637132658       -2.5235979410
 H          5.9344543091        0.3147566514        1.8551133904
 H          1.2353189121        1.5328264245        2.8440693708
 H         -1.1312201255        0.9255390040        2.4583298094
 H         -0.7188438140       -2.1961857802        0.7770760724
 H         -1.5087609507       -4.5151143147        0.9186961569
 H         -3.8766471044       -5.0576850616        0.5080785015
 H         -5.4793055909       -3.2714139890       -0.0455840979
 H         -5.9557815583       -0.9116851102       -0.4398899346
 H         -6.4435288987        1.4454579397       -0.8428878432
 H         -5.6788485033        3.7809335294       -1.0080446820
 H         -3.3089618035        4.3389468485       -0.6282695827
 H         -1.6894141163        2.5840820223       -0.0725282794
 H         -0.1511186539       -0.2482613024       -1.5317332731
  44
  -70.0432158364000       0.106715522983373      !
 C          6.3752386210       -1.1100357356        0.1332326660
 C          5.9775065787       -1.4719216939       -1.1443899897
 C          4.8070724400       -0.9620157334       -1.6739120622
 C          4.0368946545       -0.0703126184       -0.9390758212
 C          4.4359423167        0.2929672994        0.3402158268
 C          5.6014920182       -0.2387322397        0.8763204912
 S          3.5264283917        1.4556126578        1.3234862913
 C          1.8609510117        0.9746727705        0.9491551234
 C          0.9296494259        0.9965650006        1.9790979419
 C         -0.3908029786        0.6768487228        1.7331166818
 C         -0.7980608610        0.3079495252        0.4541010655
 C         -2.2122344331       -0.0399038352        0.1846379246
 C         -2.6325083722       -1.3708345462        0.3027466347
 C         -1.7436458970       -2.4129541981        0.6749984698
 C         -2.1787287867       -3.6975298063        0.7889398497
 C         -3.5280488338       -4.0228770375        0.5365348286
 C         -4.4109916260       -3.0530554101        0.1751059491
 C         -3.9997642374       -1.7014298357        0.0467372982
 C         -4.8899303504       -0.6955981384       -0.3164583583
 C         -4.4807537611        0.6289650098       -0.4334942641
 C         -5.3831851277        1.6612398940       -0.7975383121
 C         -4.9659013394        2.9517848792       -0.9029967123
 C         -3.6183922370        3.2862125784       -0.6524342460
 C         -2.7204733139        2.3252610690       -0.3023269874
 C         -3.1150831914        0.9673298561       -0.1784884837
 C          0.1387136069        0.2668393847       -0.5689482842
 C          1.4615253452        0.6093105756       -0.3293891663
 S          2.5811311833        0.5932801473       -1.7050170416
 H          7.2865171090       -1.5071303475        0.5533195821
 H          6.5764782789       -2.1531441334       -1.7291445645
 H          4.4824212524       -1.2339266848       -2.6666409203
 H          5.8964711616        0.0544077598        1.8722565233
 H          1.2536045788        1.2832293529        2.9678252492
 H         -1.1139093230        0.7094222334        2.5340508598
 H         -0.7100571255       -2.1648667596        0.8689902563
 H         -1.4932349126       -4.4819070843        1.0749389632
 H         -3.8494678461       -5.0494904192        0.6341894348
 H         -5.4465476282       -3.2925400810       -0.0207225392
 H         -5.9231043296       -0.9492332455       -0.5098748503
 H         -6.4131868542        1.3951929465       -0.9885004149
 H         -5.6596780009        3.7321745504       -1.1795346742
 H         -3.3065467411        4.3164264505       -0.7422844550
 H         -1.6885263779        2.5822996991       -0.1117964922
 H         -0.1592647218       -0.0167507035       -1.5671305103
  44
  -70.0432122490000       0.106311180873599      !
 C          6.4257940130       -0.9574416470       -0.2747994662
 C          6.0059829470       -0.9683184469       -1.5957835553
 C          4.8074936392       -0.3750817789       -1.9439890310
 C          4.0299593962        0.2519850292       -0.9791096920
 C          4.4495943126        0.2612883495        0.3444046408
 C          5.6446019142       -0.3546130995        0.6927160808
 S          3.5340568865        1.0718774406        1.6286062062
 C          1.8697551625        0.6832494478        1.1574301893
 C          0.9560094930        0.4081477690        2.1667899673
 C         -0.3653723893        0.1500519376        1.8624725059
 C         -0.7963040428        0.1444955960        0.5374963795
 C         -2.2097977134       -0.1266763273        0.2045136280
 C         -2.7406112917       -1.4072850272        0.4217769239
 C         -1.9569099552       -2.4804827768        0.9210246174
 C         -2.4984536111       -3.7132333474        1.1217655909
 C         -3.8568953118       -3.9570268047        0.8319517085
 C         -4.6383337907       -2.9604456524        0.3356513726
 C         -4.1122494249       -1.6626751526        0.1085663316
 C         -4.8963260757       -0.6401871181       -0.4154309797
 C         -4.3772379376        0.6305157090       -0.6410839213
 C         -5.1756143340        1.6741516358       -1.1757354545
 C         -4.6611908764        2.9169088099       -1.3785234436
 C         -3.3177087119        3.1892531157       -1.0475542305
 C         -2.5184850803        2.2143897223       -0.5335949826
 C         -3.0091157753        0.8990314751       -0.3229331681
 C          0.1255322889        0.3981149901       -0.4700493558
 C          1.4498587935        0.6762616781       -0.1659314521
 S          2.5408541398        1.0532380105       -1.5129129221
 H          7.3597807941       -1.4204186693        0.0037536212
 H          6.6101828870       -1.4397508062       -2.3555499980
 H          4.4662559691       -0.3734431549       -2.9678624577
 H          5.9564384358       -0.3371628676        1.7258673270
 H          1.2943833309        0.4176054330        3.1916074785
 H         -1.0738330265       -0.0430309379        2.6539506961
 H         -0.9130702511       -2.3046843578        1.1356225631
 H         -1.8885396087       -4.5196047702        1.5021788667
 H         -4.2644182876       -4.9428033178        1.0019628830
 H         -5.6781370839       -3.1375668405        0.1000571861
 H         -5.9326394935       -0.8375988004       -0.6528741884
 H         -6.2063184302        1.4554494605       -1.4162023182
 H         -5.2750718713        3.7063962557       -1.7865925703
 H         -2.9287335475        4.1848299839       -1.2030315292
 H         -1.4937084609        2.4345855180       -0.2737318841
 H         -0.1854202666        0.3918212866       -1.5040667530
  44
  -70.0431389089000       9.837260359816342E-002 !
 C          6.2350299161        1.8372349367       -0.2601311529
 C          5.7962457105        1.8725989209       -1.5744844374
 C          4.6816896534        1.1468343200       -1.9497530637
 C          4.0100074204        0.3637738342       -1.0199882078
 C          4.4491062436        0.3290083257        0.2968427659
 C          5.5571207551        1.0767005833        0.6736067654
 S          3.6715468172       -0.6748575505        1.5343901485
 C          1.9624694713       -0.4839645238        1.1026615458
 C          1.0371088121       -0.3976680322        2.1350067783
 C         -0.3123732371       -0.3077001460        1.8587186140
 C         -0.7618270172       -0.2762400676        0.5403601069
 C         -2.2041116670       -0.1849057881        0.2334423755
 C         -3.0446210052       -1.2688416303        0.5296591041
 C         -2.5568479841       -2.4777713293        1.0914424745
 C         -3.3962099955       -3.5129124969        1.3694866039
 C         -4.7767110099       -3.4107892433        1.1004212025
 C         -5.2818498387       -2.2763668057        0.5451926483
 C         -4.4409995981       -1.1765879010        0.2357407703
 C         -4.9418138577       -0.0194344922       -0.3519439398
 C         -4.1150564856        1.0567665711       -0.6568976511
 C         -4.6232653209        2.2363954049       -1.2592920037
 C         -3.8078773085        3.2888834845       -1.5376233442
 C         -2.4357171003        3.2250116886       -1.2178250773
 C         -1.9089187934        2.1094481773       -0.6424820366
 C         -2.7195159366        0.9802476570       -0.3539648034
 C          0.1690747865       -0.3349255268       -0.4888298114
 C          1.5234838006       -0.4519310815       -0.2141514063
 S          2.6313647285       -0.5941636029       -1.5919605087
 H          7.1042039725        2.4022724249        0.0394794205
 H          6.3206237569        2.4653535343       -2.3081476072
 H          4.3267282395        1.1625214171       -2.9688518150
 H          5.8851813382        1.0379949979        1.7010746156
 H          1.3912241530       -0.4196592518        3.1542911073
 H         -1.0264246833       -0.2532733693        2.6667029149
 H         -1.4992604093       -2.5681868545        1.2907363749
 H         -3.0091339509       -4.4266540162        1.7961141940
 H         -5.4231194067       -4.2444450629        1.3324044077
 H         -6.3364030057       -2.1900526618        0.3246813703
 H         -5.9973245093        0.0441601127       -0.5779849808
 H         -5.6785241143        2.2774468540       -1.4893394813
 H         -4.2019954823        4.1837269092       -1.9965940651
 H         -1.8055788278        4.0760432862       -1.4312920296
 H         -0.8591340982        2.0723331591       -0.3912096802
 H         -0.1581703572       -0.3167686615       -1.5176671041
  44
  -70.0422730624000       3.935126204905723E-002 !
 C          5.8017856644        2.2953489867       -0.2248191620
 C          5.3558399532        2.2887408783       -1.5374757197
 C          4.4011582100        1.3735330589       -1.9387395740
 C          3.8991465623        0.4492729993       -1.0331025212
 C          4.3468205395        0.4542502350        0.2813281619
 C          5.2939327506        1.3857129418        0.6837474024
 S          3.7493915654       -0.7179570539        1.4735817453
 C          2.0193649572       -0.6591293128        1.0846335551
 C          1.1006042163       -0.6143109537        2.1245932498
 C         -0.2515992073       -0.5364814686        1.8565051646
 C         -0.7092139130       -0.4853596174        0.5414376236
 C         -2.1427607110       -0.3019381046        0.2388956235
 C         -3.0689889460       -1.3086428681        0.5471875351
 C         -2.6813780252       -2.5476127211        1.1213603087
 C         -3.6037494896       -3.5050004127        1.4146017120
 C         -4.9719654727       -3.2905336001        1.1474784977
 C         -5.3825154480       -2.1249691876        0.5790380519
 C         -4.4537535919       -1.1028605270        0.2550959906
 C         -4.8580926521        0.0855499765       -0.3440798245
 C         -3.9462189170        1.0878267552       -0.6590026371
 C         -4.3573695364        2.3002027888       -1.2704735108
 C         -3.4600330989        3.2816388708       -1.5564315946
 C         -2.0984613523        3.1101721705       -1.2327982367
 C         -1.6640709787        1.9599443730       -0.6486325214
 C         -2.5616422648        0.8995328151       -0.3557533259
 C          0.2132555135       -0.5506597604       -0.4956418879
 C          1.5692864232       -0.6447792489       -0.2287305797
 S          2.6939259817       -0.7227519323       -1.6006599551
 H          6.5431654318        3.0120540019        0.0936120453
 H          5.7490665800        2.9981781365       -2.2493512122
 H          4.0414438951        1.3546745862       -2.9560728965
 H          5.6307557156        1.3779237259        1.7089785775
 H          1.4616143024       -0.6369489999        3.1413821537
 H         -0.9605323761       -0.4879138013        2.6694285817
 H         -1.6338380094       -2.7225897830        1.3180344619
 H         -3.2941318730       -4.4427002737        1.8523331234
 H         -5.6853528031       -4.0637947730        1.3921965004
 H         -6.4267527535       -1.9534707665        0.3593158386
 H         -5.9049233746        0.2337918566       -0.5706880273
 H         -5.4057878102        2.4249672521       -1.5010905583
 H         -3.7799893299        4.2015852900       -2.0232356089
 H         -1.4005719351        3.9056941964       -1.4498233779
 H         -0.6210071783        1.8453908511       -0.3937702135
 H         -0.1215371010       -0.5313632782       -1.5218974822
  44
  -70.0420676529000       3.166350555791413E-002 !
 C          6.0137933280       -1.4783855902        0.6788999424
 C          5.6008988430       -2.1164264180       -0.4805727314
 C          4.5611102156       -1.5924134878       -1.2250255864
 C          3.9397340612       -0.4183241557       -0.8227473246
 C          4.3533552969        0.2217383790        0.3381147833
 C          5.3872775882       -0.3172239104        1.0912935102
 S          3.6033390249        1.7349928387        0.8867132371
 C          1.8994846025        1.3227132848        0.6128953091
 C          0.9644580777        1.6573895987        1.5831734166
 C         -0.3635266104        1.3158137241        1.4192597604
 C         -0.7783113819        0.6175075563        0.2872480557
 C         -2.1679902485        0.1407183775        0.1420442838
 C         -2.4090724232       -1.2433934984        0.1547621985
 C         -1.3756660610       -2.1970136532        0.3513927121
 C         -1.6381238537       -3.5327214489        0.3466352890
 C         -2.9520276157       -4.0058909766        0.1529675837
 C         -3.9757324917       -3.1254488698       -0.0113844847
 C         -3.7452245216       -1.7255584744       -0.0076411372
 C         -4.7876246948       -0.8158986636       -0.1528886024
 C         -4.5606982608        0.5563721470       -0.1477973728
 C         -5.6238837348        1.4847605396       -0.2888556187
 C         -5.3875339268        2.8241889804       -0.3026904147
 C         -4.0690306867        3.3118151729       -0.1882518318
 C         -3.0214730836        2.4535377935       -0.0489167797
 C         -3.2255511166        1.0494098674       -0.0067031550
 C          0.1574131995        0.3081459373       -0.6927550884
 C          1.4868956515        0.6635804077       -0.5374289698
 S          2.6289639586        0.2315497252       -1.8265181792
 H          6.8211022808       -1.8879862365        1.2663974871
 H          6.0835058747       -3.0264520777       -0.8024781281
 H          4.2246086061       -2.0768144188       -2.1288531456
 H          5.6970673642        0.1906821639        1.9916929181
 H          1.2947741825        2.1799155261        2.4678482441
 H         -1.0820043728        1.5630372270        2.1863877812
 H         -0.3671421108       -1.8474846267        0.5146901264
 H         -0.8381269224       -4.2431098612        0.4959811202
 H         -3.1342323646       -5.0704581829        0.1455438830
 H         -4.9893490612       -3.4748083096       -0.1471834847
 H         -5.7973785687       -1.1842000275       -0.2707241146
 H         -6.6283996370        1.0983888486       -0.3875264162
 H         -6.2024823626        3.5248900852       -0.4102585474
 H         -3.8986733106        4.3780861611       -0.2166735333
 H         -2.0132505912        2.8333079756        0.0276543747
 H         -0.1469890248       -0.2142217001       -1.5872637701
  44
  -70.0417901701000       2.360677874867272E-002 !
 C          5.9684062158       -1.4763639645        0.7685482143
 C          5.5519369406       -2.1609407940       -0.3627333963
 C          4.5317626360       -1.6509195192       -1.1434013383
 C          3.9315817787       -0.4468194754       -0.8031127906
 C          4.3461166951        0.2375854705        0.3318164050
 C          5.3632132159       -0.2839334512        1.1189368466
 S          3.6078861188        1.7817621015        0.8053545047
 C          1.9041556030        1.3550532314        0.5516750297
 C          0.9708003512        1.7086266338        1.5165660886
 C         -0.3545511436        1.3512081009        1.3673158020
 C         -0.7699065841        0.6240144649        0.2533038048
 C         -2.1585540899        0.1410342876        0.1272698829
 C         -2.3961393440       -1.2440817426        0.1334055409
 C         -1.3580047349       -2.1981567497        0.3013567767
 C         -1.6180519670       -3.5343120471        0.2870935644
 C         -2.9343449158       -4.0083655718        0.1131761986
 C         -3.9627069043       -3.1280819512       -0.0191394213
 C         -3.7346770586       -1.7278198523       -0.0036788974
 C         -4.7829171163       -0.8196981962       -0.1110235260
 C         -4.5595752184        0.5530789552       -0.0971047988
 C         -5.6293187855        1.4793956963       -0.1963578439
 C         -5.3974391974        2.8196398655       -0.2048322136
 C         -4.0770363739        3.3097285844       -0.1304322955
 C         -3.0234249873        2.4532510549       -0.0304816835
 C         -3.2221844217        1.0482784686        0.0106807691
 C          0.1643772278        0.2964886452       -0.7223544405
 C          1.4925995306        0.6608417670       -0.5780980286
 S          2.6417914842        0.1853649945       -1.8456812756
 H          6.7607320327       -1.8745318649        1.3835569609
 H          6.0181160482       -3.0952534847       -0.6357584028
 H          4.1946348374       -2.1704657944       -2.0272175256
 H          5.6725760209        0.2580959058        1.9993556912
 H          1.2999935160        2.2582577323        2.3850249316
 H         -1.0714192974        1.6106690661        2.1318972510
 H         -0.3471271372       -1.8493192239        0.4505522563
 H         -0.8140965690       -4.2445235036        0.4144621913
 H         -3.1147784723       -5.0731520789        0.0983215780
 H         -4.9785701269       -3.4776253171       -0.1363575554
 H         -5.7944320353       -1.1896602874       -0.2064131621
 H         -6.6352478624        1.0906440115       -0.2676340231
 H         -6.2172597319        3.5189950319       -0.2786906005
 H         -3.9098022908        4.3765257173       -0.1580991387
 H         -2.0145542347        2.8362577516        0.0132005850
 H         -0.1395553331       -0.2476297257       -1.6039698641
  44
  -70.0412319580000       1.307676173006431E-002 !
 C          5.8529914983       -1.5654852285        0.8440049548
 C          5.4494130250       -2.2354711450       -0.3007371516
 C          4.4758182859       -1.6888820940       -1.1154426421
 C          3.9110762959       -0.4624665100       -0.7954715100
 C          4.3168254208        0.2103466658        0.3495616236
 C          5.2849691419       -0.3484950815        1.1717907000
 S          3.6206349967        1.7838123606        0.7913984186
 C          1.9114211434        1.3942362241        0.5157789549
 C          0.9719630656        1.7607926452        1.4697435665
 C         -0.3526546236        1.4046761794        1.3135764941
 C         -0.7618985091        0.6677609356        0.2032135006
 C         -2.1437014075        0.1630661602        0.0930992780
 C         -2.3566894448       -1.2265891485        0.1042774959
 C         -1.2996394954       -2.1637977412        0.2482518617
 C         -1.5380023756       -3.5041127646        0.2448854313
 C         -2.8501479112       -4.0004282153        0.1062933497
 C         -3.8954807177       -3.1371311056       -0.0029474768
 C         -3.6900089579       -1.7332819221        0.0028158057
 C         -4.7565786204       -0.8436273318       -0.0742625681
 C         -4.5572084452        0.5328025185       -0.0636184669
 C         -5.6460167462        1.4400097776       -0.1238901466
 C         -5.4387114187        2.7842608792       -0.1296194517
 C         -4.1255187698        3.2975498467       -0.0961985646
 C         -3.0539934856        2.4596942541       -0.0362310901
 C         -3.2262105472        1.0512901962        0.0065607520
 C          0.1762298407        0.3406226713       -0.7691145779
 C          1.5042983630        0.7017643661       -0.6166294018
 S          2.6673638880        0.2125364994       -1.8674721168
 H          6.6071559081       -1.9936489277        1.4863897634
 H          5.8878002035       -3.1879217806       -0.5564970618
 H          4.1469249934       -2.1978950353       -2.0084507161
 H          5.5886670763        0.1848500361        2.0594426642
 H          1.2967079805        2.3134150498        2.3379544509
 H         -1.0734726480        1.6672637697        2.0733346200
 H         -0.2908090078       -1.7997487129        0.3722382682
 H         -0.7192633497       -4.2002447055        0.3547673868
 H         -3.0135906856       -5.0680475707        0.1003976209
 H         -4.9082908786       -3.5033598456       -0.0922657920
 H         -5.7637642414       -1.2314159067       -0.1400464349
 H         -6.6465046944        1.0333587336       -0.1654562867
 H         -6.2729803985        3.4690718466       -0.1706921918
 H         -3.9782672320        4.3672791909       -0.1239890952
 H         -2.0512490250        2.8606887124       -0.0261546382
 H         -0.1230756481       -0.2054481546       -1.6511306855
