  44
        -70.31902862
 C          6.3673182212       -1.1321656693       -0.6771244483
 C          5.9494076613       -0.6856585999       -1.9210459894
 C          4.7840828452        0.0481958539       -2.0351912131
 C          4.0390227179        0.3597302848       -0.9053256792
 C          4.4566714541       -0.0890861173        0.3404686756
 C          5.6173339021       -0.8441678098        0.4473000448
 S          3.5829366684        0.2969754615        1.8344503005
 C          1.9012660633        0.1690266445        1.2880513066
 C          0.9729374305       -0.3777886923        2.1647600271
 C         -0.3596959088       -0.4548299082        1.8134401037
 C         -0.7884278639       -0.0014359495        0.5676802845
 C         -2.2136895718       -0.0767553210        0.1864557603
 C         -2.8110585640       -1.3291957713       -0.0220346292
 C         -2.0852703703       -2.5446643321        0.0831182572
 C         -2.6908282621       -3.7460034621       -0.1250268202
 C         -4.0597435124       -3.8125001569       -0.4573525903
 C         -4.7872829169       -2.6703423206       -0.5850083956
 C         -4.1937250818       -1.3982474270       -0.3800588311
 C         -4.9225044985       -0.2223978464       -0.5252810155
 C         -4.3373508956        1.0240568855       -0.3277885283
 C         -5.0792892460        2.2240702085       -0.4758715752
 C         -4.5002881729        3.4368694946       -0.2659299046
 C         -3.1448778986        3.5174477788        0.1148935396
 C         -2.3984672688        2.3890503190        0.2660937450
 C         -2.9575161999        1.1040272308        0.0392807102
 C          0.1468543124        0.5241265515       -0.3145241910
 C          1.4834771077        0.6199885400        0.0431683479
 S          2.5946245145        1.3653984171       -1.1215018359
 H          7.2754146704       -1.7070624548       -0.5815976036
 H          6.5292157585       -0.9095129918       -2.8032380694
 H          4.4448665017        0.4045581557       -2.9957643798
 H          5.9281743249       -1.1841309899        1.4233898419
 H          1.3098728013       -0.7238594129        3.1299267718
 H         -1.0784189056       -0.8626721375        2.5082329985
 H         -1.0339743019       -2.5017696177        0.3270348625
 H         -2.1244650427       -4.6620691083       -0.0413568853
 H         -4.5185044233       -4.7775607489       -0.6152468251
 H         -5.8345871666       -2.7077578034       -0.8492456275
 H         -5.9673821121       -0.2785048067       -0.7980060254
 H         -6.1196742912        2.1486110015       -0.7585564770
 H         -5.0714562557        4.3463411360       -0.3812081325
 H         -2.7041477232        4.4878762564        0.2900324893
 H         -1.3639512891        2.4598135007        0.5676752397
 H         -0.1625186706        0.8748485671       -1.2877690242
