53
 energy: -89.303146463198 gnorm: 0.000066743073 xtb: 6.7.1 (edcfbbe)
C           -7.11103188728158       -2.72860773577568        1.21342867012384
C           -7.58202598357344       -1.43708809703664        1.44240941842207
C           -6.80508452569751       -0.32628839848674        1.16548595685322
C           -5.54170471253595       -0.55212721152896        0.65303340550141
C           -5.04791725087426       -1.86603308827135        0.41563786686235
C           -5.84903748353527       -2.96313007374261        0.70186549736085
N           -3.76318167021528       -1.83054004121734       -0.09132625615342
C           -3.49486234356552       -0.56182044260933       -0.17195819161424
N           -2.41606066932346        0.20003361354370       -0.52439492821226
C           -1.20111186353001       -0.28669720967960       -1.02261521915382
C            0.00376154950728        0.22085982378086       -0.54425205858015
C            1.19356483903273       -0.28543616795570       -1.06037612669931
C            2.49587624910029        0.20860095342892       -0.59039256880854
C            2.67457396334718        1.57437205048977       -0.33187091525863
C            3.88114656796487        2.08495916434533        0.10653835163867
C            4.92027631411008        1.19091539172265        0.29699435405219
O            6.17572013240539        1.48587783581158        0.72873276223065
C            6.85442847589302        0.30092015335609        0.76756399033854
C            8.17165477422840        0.12123307802394        1.14961296632887
C            8.66835599006577       -1.17045056917005        1.11806960606853
C            7.87722265191962       -2.24500638882334        0.71856655634941
C            6.56196822627223       -2.06361539691798        0.33665835205222
C            6.04195616963378       -0.77577776297211        0.36080740797678
C            4.76451315328527       -0.18845886187205        0.04819462967796
C            3.54927328187704       -0.67946103746912       -0.40204469853860
C            1.10157728790673       -1.28837564358168       -2.02920429435507
C           -0.15019400292947       -1.72607727418032       -2.42061669636457
N           -1.28140973685278       -1.23682724511175       -1.94085317903617
C           -2.76793169220210        1.53341742682412       -0.32365741340448
C           -2.07459076871378        2.70262210487914       -0.58095660434670
C           -2.70161941334124        3.90474821862027       -0.28969961922593
C           -3.98714771038226        3.94602616253413        0.23417972995184
C           -4.70491242334567        2.78374962573810        0.46963202142025
C           -4.08740645019006        1.58143132868677        0.18073661106455
N           -4.51072054454339        0.27408661997402        0.26573063061367
H           -7.75230339227119       -3.56680169840317        1.44332456489995
H           -8.57498928439754       -1.30004953490931        1.84358689180426
H           -7.17273368047054        0.67279760642757        1.34293398304864
H           -5.48466377970346       -3.96263230241779        0.52442314784290
H            0.01074377265841        0.95878047314476        0.24239525714768
H            1.85256732648710        2.25215542694802       -0.50320192239148
H            4.01451563766965        3.13815866175228        0.29499378849419
H            8.77848891866058        0.95777110849399        1.45757662881659
H            9.69235300220952       -1.34751138667057        1.41036487349037
H            8.30323796110165       -3.23703453641048        0.70859769820401
H            5.94982572202577       -2.89691115175706        0.02809450890768
H            3.41795296480211       -1.73566952789665       -0.57732674114017
H            1.98998047996158       -1.70488226862192       -2.47554991639065
H           -0.26705028976320       -2.50218353559747       -3.16522359379262
H           -1.08536081666642        2.68328431365412       -1.00914667127402
H           -2.17725898464277        4.82849284363834       -0.47918875030314
H           -4.44139419016857        4.89985765871338        0.45247171046193
H           -5.70985327576468        2.81392025989140        0.85840364500027
