53
 energy: -89.303128405912 gnorm: 0.000065637453 xtb: 6.7.1 (edcfbbe)
C           -7.10019435840386       -2.87984156255870        1.04398898812882
C           -7.58966701019037       -1.59815192702949        1.28893314573270
C           -6.82612930547127       -0.47322252129988        1.03256011438710
C           -5.55674206912734       -0.67480537986365        0.52477668082013
C           -5.04355009087323       -1.97849608526021        0.27267277344719
C           -5.83195405831236       -3.09013189942732        0.53737996563886
N           -3.75558093397617       -1.91865410886508       -0.22357429325164
C           -3.50347916012711       -0.64555290301126       -0.28419963835854
N           -2.43235753235944        0.13601751103942       -0.61756468477260
C           -1.20319281250472       -0.32929766585841       -1.09993632774288
C           -0.01304696091639        0.20361298744008       -0.61190075610164
C            1.19116782519650       -0.28540205569028       -1.11040993888280
C            2.47826706894095        0.23770038457720       -0.62963972154651
C            2.63248558984748        1.61165481869602       -0.40120024311119
C            3.82365002154473        2.15026833463542        0.04571888967591
C            4.87106055119399        1.27596498094322        0.27769598698824
O            6.11360989600325        1.59951381778424        0.72614621324704
C            6.80712536879967        0.42557296410975        0.80948834202289
C            8.11816916185484        0.27418315745264        1.22373093985481
C            8.63222353177783       -1.01098796659796        1.23767393736296
C            7.86371784761659       -2.10654542181211        0.85124105475362
C            6.55480101561943       -1.95332321664363        0.43658379315257
C            6.01767849658733       -0.67247797239222        0.41457810038624
C            4.73917940157547       -0.11128847843230        0.06091163062136
C            3.54001058080933       -0.63045136920763       -0.40103624073790
C            1.12937971106713       -1.29826421608513       -2.07102508614253
C           -0.10985617970460       -1.76033338422097       -2.47443082033432
N           -1.25508629474043       -1.28712666003874       -2.01226115205143
C           -2.80489770719460        1.46176074585274       -0.40275739651524
C           -2.12770077747756        2.64449759124621       -0.64092496540938
C           -2.77413474199017        3.83347455180177       -0.33837772743496
C           -4.06335173021277        3.84936002284454        0.17762289859273
C           -4.76568709565539        2.67376799365083        0.39232316653335
C           -4.12866347349722        1.48448258871968        0.09212918161594
N           -4.53421153891031        0.17039809476349        0.15656069940332
H           -7.73164820091099       -3.72974879516394        1.25752158911587
H           -8.58652836649749       -1.48017492984012        1.68647394319299
H           -7.20829340301372        0.51813108743349        1.22232285031266
H           -5.45316683321895       -4.08202684389400        0.34792823180246
H           -0.02696652836199        0.94706157086890        0.16936900713804
H            1.80381195756758        2.27256317462653       -0.60365382850307
H            3.93906575301281        3.20962138222158        0.21000261779489
H            8.70717483285813        1.12696136375288        1.52167675496699
H            9.65211925577045       -1.16617595739352        1.55555712622519
H            8.30258154855338       -3.09266370353310        0.87752487722878
H            5.96031494067523       -2.80297667557821        0.13825200797584
H            3.42639490689462       -1.69219784539574       -0.55412652518808
H            2.03093202926902       -1.70314126752433       -2.50151152767186
H           -0.20429129213515       -2.54396053790902       -3.21432961437390
H           -1.13598863011525        2.64611006894080       -1.06358012111037
H           -2.26205936077330        4.76706188693900       -0.51249387166162
H           -4.53279846164909        4.79350935807428        0.40556859570728
H           -5.77369738472792        2.68416891211540        0.77401837708147
