  53
        -89.26339324
 C         -7.1676482358       -2.6945361678        1.1522970322
 C         -7.6172327033       -1.3989779278        1.4002422134
 C         -6.8201328206       -0.2980089048        1.1451056648
 C         -5.5589855684       -0.5381984121        0.6345681410
 C         -5.0865587124       -1.8567860088        0.3777983208
 C         -5.9083974668       -2.9434121691        0.6422232063
 N         -3.8001396516       -1.8347423403       -0.1213675786
 C         -3.5074842599       -0.5718106372       -0.1776235893
 N         -2.4128153051        0.1806547877       -0.5099834606
 C         -1.2014019542       -0.3236395057       -0.9917279887
 C          0.0074183298        0.1978975153       -0.5380277880
 C          1.1908369492       -0.3294901271       -1.0446411466
 C          2.4957277799        0.1840578926       -0.6049535680
 C          2.6760985766        1.5602936001       -0.4147547927
 C          3.8845033592        2.0918426449       -0.0088381892
 C          4.9254465964        1.2088985913        0.2177816923
 O          6.1825887585        1.5237005785        0.6242048528
 C          6.8610185941        0.3450485074        0.7156949070
 C          8.1810581474        0.1833352598        1.0954590306
 C          8.6782462212       -1.1076774466        1.1218988492
 C          7.8851903265       -2.2004589973        0.7810551484
 C          6.5670078075       -2.0380434665        0.4022990291
 C          6.0467146766       -0.7511696072        0.3686834701
 C          4.7674872093       -0.1807286475        0.0377627116
 C          3.5498471943       -0.6932092459       -0.3798801474
 C          1.0928917199       -1.3683211877       -1.9729560166
 C         -0.1627961420       -1.8214219797       -2.3358140772
 N         -1.2870559829       -1.3113387399       -1.8679989656
 C         -2.7465855486        1.5144826839       -0.2925027993
 C         -2.0388215305        2.6783214546       -0.5320432576
 C         -2.6523322331        3.8844948841       -0.2297746282
 C         -3.9397045416        3.9363012433        0.2871352918
 C         -4.6733645323        2.7804800274        0.5026927210
 C         -4.0697185978        1.5743396905        0.2036862524
 N         -4.5130554828        0.2752731936        0.2668264741
 H         -7.8250863144       -3.5241924922        1.3667938096
 H         -8.6093223685       -1.2513887445        1.7999642169
 H         -7.1701983229        0.7047877509        1.3371282939
 H         -5.5616383333       -3.9457394409        0.4508554259
 H          0.0243815721        0.9598909476        0.2247976653
 H          1.8520815450        2.2283902436       -0.6149185173
 H          4.0183300572        3.1528786943        0.1263560477
 H          8.7899626590        1.0332919582        1.3579598380
 H          9.7048644629       -1.2707387937        1.4128739318
 H          8.3119521088       -3.1914840220        0.8154523640
 H          5.9528348098       -2.8852373958        0.1383010302
 H          3.4176038164       -1.7570037642       -0.5037202827
 H          1.9797056207       -1.8005569719       -2.4084920674
 H         -0.2842538032       -2.6279097270       -3.0460595557
 H         -1.0488888271        2.6550725164       -0.9585863835
 H         -2.1149281258        4.8038976281       -0.4045131105
 H         -4.3821851139        4.8936053246        0.5148085302
 H         -5.6811028455        2.8185645902        0.8836665517
