53
 energy: -89.205064605995 gnorm: 0.000076710401 xtb: 6.7.1 (edcfbbe)
C           -2.22220282398558       -4.86905470488320        0.27437536701213
C           -3.59915848846796       -4.75083395561069        0.09038474535982
C           -4.21289222097515       -3.51193503620785       -0.02763907519424
C           -3.40101240635946       -2.39953380149837        0.04104714158787
C           -1.99076558711566       -2.50544577923484        0.23092272635308
C           -1.40095581234058       -3.76156278001967        0.34651642338495
N           -1.40480727945288       -1.26516185378733        0.27648081936273
C           -2.40592175427929       -0.42957237375285        0.11613696451299
N           -2.55832991805652        0.92265978557690        0.06282203794048
C           -1.53498637312494        1.86167157908096        0.17594623244818
C           -0.22349970527545        1.46875187387438        0.07452713553108
C            0.83033031040758        2.42103827680558        0.16329026472316
C            2.19714892103059        2.05384373093066        0.06699592719801
C            3.23306552014400        3.04135373942509       -0.04623950559181
C            4.56096168194285        2.72726978573584       -0.14123488324901
C            4.91714787985992        1.37663881837351       -0.13002378667772
O            6.17063888342976        0.85420777001027       -0.21621231270037
C            6.02590419163156       -0.50105309609227       -0.17227690490498
C            7.04317630833053       -1.43692699267903       -0.23615590877987
C            6.67919671604587       -2.77431424176878       -0.18251055009133
C            5.34858255288193       -3.15976202438887       -0.06955659313502
C            4.33142922840353       -2.21893307001686       -0.00266839579176
C            4.67142028869527       -0.87696854166034       -0.05429144457990
C            3.92935550927078        0.36269927801260       -0.02396210900475
C            2.59939313725806        0.68178307672062        0.07665988923156
C            0.38548256632438        3.77931428133134        0.35161874144937
C           -0.94742883176470        4.05847276654338        0.44632576199339
N           -1.92111675720612        3.14415839608516        0.37400764040018
C           -3.91564542979503        1.16880934989070       -0.12772773876364
C           -4.61212438712713        2.35919609822071       -0.26283821901017
C           -5.98391505861401        2.28683801261110       -0.43404906712253
C           -6.65074597314362        1.06488075543609       -0.48253977989137
C           -5.96847701292970       -0.13453157775928       -0.35875258431646
C           -4.59879826592937       -0.07191639058029       -0.18290051135015
N           -3.63421014549452       -1.04214363576732       -0.02977318484760
H           -1.78937940559741       -5.85416269686054        0.36214964068516
H           -4.20363418268571       -5.64345970053730        0.04060388787682
H           -5.27909921521947       -3.42719767576295       -0.16627966512629
H           -0.33615956132594       -3.85087821551105        0.48946555808921
H           -0.03000557610546        0.42997792227041       -0.13075967412665
H            2.95649713044206        4.08187401406063       -0.07654926105785
H            5.31730205763611        3.49159636458805       -0.22897343647132
H            8.07326730131227       -1.13036892752941       -0.32525417125436
H            7.44838535225761       -3.53011862813665       -0.23157289176603
H            5.10389187951952       -4.21065163009923       -0.03308885285376
H            3.29864938430706       -2.51912145522751        0.08535364609850
H            1.86959771634348       -0.10304403182896        0.18090967237727
H            1.09189379555999        4.58232167683003        0.47206578076200
H           -1.29470685101231        5.06814343986777        0.62386640899563
H           -4.08539853277122        3.29834114798425       -0.22800380525755
H           -6.54810623097565        3.20015615606282       -0.53893818277963
H           -7.71998168873367        1.05010078742336       -0.62549579901562
H           -6.48327641093111       -1.08061323304921       -0.39820641814526
