  41
        -69.93362160
 C         -5.6107969400        1.8468051164       -0.0018712456
 O         -4.2121196083        1.6683146204        0.0055280171
 C         -3.7262041808        0.4131525655       -0.0206381641
 C         -4.4669772399       -0.7235648535       -0.0549015993
 C         -3.8611638039       -2.0319750166       -0.0840085984
 O         -4.4672181406       -3.0755634618       -0.1170714874
 O         -2.4901732310       -2.0902999302       -0.0720857179
 C         -1.7216524319       -0.9787341473       -0.0345804597
 C         -0.3458598247       -1.1709327940       -0.0232083439
 C          0.4640837011       -0.0497601651        0.0210948077
 C         -0.0870807389        1.2615964545        0.0265077186
 C         -1.4542071291        1.4380745633        0.0138321944
 C         -2.2830077116        0.3161454967       -0.0097335666
 C          1.0281851718        2.1685368005        0.0337594865
 C          1.1332471800        3.5524585285        0.0584658845
 C          2.3930038030        4.1181799880        0.0820494468
 C          3.5358249230        3.3225097310        0.0943655876
 C          3.4555434478        1.9423952295        0.0703489741
 C          2.1936069600        1.3698623545        0.0257632467
 N          1.8334435132        0.0334956832        0.0184278944
 C          2.7225444613       -1.0553092626        0.0097017764
 C          3.7346014999       -1.1202136013       -0.9423255616
 C          4.6097212244       -2.1909400033       -0.9444456608
 C          4.4772225492       -3.2028675901       -0.0081730800
 C          3.4667689848       -3.1403195705        0.9369581839
 C          2.5921784253       -2.0693496030        0.9527874174
 H         -5.7708508367        2.9232520967        0.0212839885
 H         -6.0592217642        1.4292616705       -0.9076883719
 H         -6.0734866233        1.3888154995        0.8768142492
 H         -5.5436289355       -0.7259337761       -0.0640619741
 H          0.0479123771       -2.1732926691       -0.0589904305
 H         -1.8962443963        2.4208784653        0.0181955835
 H          0.2466690772        4.1677585900        0.0638950933
 H          2.4980696373        5.1924918789        0.0991934889
 H          4.5069816181        3.7934235025        0.1255532002
 H          4.3462326084        1.3333329472        0.0959452749
 H          3.8203867288       -0.3391477639       -1.6829395500
 H          5.3930330637       -2.2390909984       -1.6860971642
 H          5.1593406747       -4.0393275672       -0.0159018186
 H          3.3619829481       -3.9258537232        1.6701701989
 H          1.8148855857       -2.0063239074        1.6993023343
