  41
  -69.6749180624000       0.585255852666927      !
 C         -5.6107969400        1.8468051164       -0.0018712456
 O         -4.2121196083        1.6683146204        0.0055280171
 C         -3.7262041808        0.4131525655       -0.0206381641
 C         -4.4669772399       -0.7235648535       -0.0549015993
 C         -3.8611638039       -2.0319750166       -0.0840085984
 O         -4.4672181406       -3.0755634618       -0.1170714874
 O         -2.4901732310       -2.0902999302       -0.0720857179
 C         -1.7216524319       -0.9787341473       -0.0345804597
 C         -0.3458598247       -1.1709327940       -0.0232083439
 C          0.4640837011       -0.0497601651        0.0210948077
 C         -0.0870807389        1.2615964545        0.0265077186
 C         -1.4542071291        1.4380745633        0.0138321944
 C         -2.2830077116        0.3161454967       -0.0097335666
 C          1.0281851718        2.1685368005        0.0337594865
 C          1.1332471800        3.5524585285        0.0584658845
 C          2.3930038030        4.1181799880        0.0820494468
 C          3.5358249230        3.3225097310        0.0943655876
 C          3.4555434478        1.9423952295        0.0703489741
 C          2.1936069600        1.3698623545        0.0257632467
 N          1.8334435132        0.0334956832        0.0184278944
 C          2.7225444613       -1.0553092626        0.0097017764
 C          3.7346014999       -1.1202136013       -0.9423255616
 C          4.6097212244       -2.1909400033       -0.9444456608
 C          4.4772225492       -3.2028675901       -0.0081730800
 C          3.4667689848       -3.1403195705        0.9369581839
 C          2.5921784253       -2.0693496030        0.9527874174
 H         -5.7708508367        2.9232520967        0.0212839885
 H         -6.0592217642        1.4292616705       -0.9076883719
 H         -6.0734866233        1.3888154995        0.8768142492
 H         -5.5436289355       -0.7259337761       -0.0640619741
 H          0.0479123771       -2.1732926691       -0.0589904305
 H         -1.8962443963        2.4208784653        0.0181955835
 H          0.2466690772        4.1677585900        0.0638950933
 H          2.4980696373        5.1924918789        0.0991934889
 H          4.5069816181        3.7934235025        0.1255532002
 H          4.3462326084        1.3333329472        0.0959452749
 H          3.8203867288       -0.3391477639       -1.6829395500
 H          5.3930330637       -2.2390909984       -1.6860971642
 H          5.1593406747       -4.0393275672       -0.0159018186
 H          3.3619829481       -3.9258537232        1.6701701989
 H          1.8148855857       -2.0063239074        1.6993023343
  41
  -69.6745926145000       0.414744147333073      !
 C         -5.5937185316        1.8428480365       -0.3646338580
 O         -4.2035034751        1.6681402116       -0.2060777489
 C         -3.7248941876        0.4151711032       -0.0886188304
 C         -4.4699194151       -0.7190026228       -0.0591821789
 C         -3.8697265336       -2.0262744789        0.0441323422
 O         -4.4796005703       -3.0667415496        0.1000601822
 O         -2.4990106177       -2.0882049028        0.0677343420
 C         -1.7267462544       -0.9786230347        0.0502437210
 C         -0.3515573031       -1.1737613587        0.0809067707
 C          0.4612269299       -0.0538578944        0.0902431975
 C         -0.0876536257        1.2585350066        0.0633096563
 C         -1.4533543315        1.4373771003        0.0083710631
 C         -2.2843451109        0.3169839105       -0.0020275234
 C          1.0283809951        2.1645757343        0.0763307146
 C          1.1363621287        3.5483735450        0.0965173616
 C          2.3971417465        4.1110463179        0.1382385023
 C          3.5381235175        3.3131085589        0.1696349891
 C          3.4549446175        1.9332049516        0.1482515474
 C          2.1920547500        1.3640516201        0.0891364071
 N          1.8309027130        0.0281427265        0.0950537930
 C          2.7230205276       -1.0556605924        0.0130218052
 C          3.6863683235       -1.0782383215       -0.9905829948
 C          4.5629337658       -2.1435393952       -1.0806711877
 C          4.4802931183       -3.1921762156       -0.1796792363
 C          3.5202323000       -3.1704896285        0.8181889315
 C          2.6440054214       -2.1051499923        0.9215998314
 H         -6.1412548926        1.5004251704        0.5179247642
 H         -5.7436299938        2.9132644227       -0.4940576970
 H         -5.9604216829        1.3124555184       -1.2481271691
 H         -5.5454178790       -0.7197175984       -0.1104525766
 H          0.0388283977       -2.1779356984        0.0881525064
 H         -1.8922078617        2.4207838539       -0.0320359688
 H          0.2515323395        4.1661213530        0.0865987660
 H          2.5043955215        5.1851738014        0.1557786166
 H          4.5097084612        3.7820929677        0.2161739893
 H          4.3429021744        1.3207150217        0.1881369550
 H          3.7327834471       -0.2665243284       -1.7013399362
 H          5.3069859312       -2.1582752709       -1.8630537518
 H          5.1619706607       -4.0255410254       -0.2564226813
 H          3.4547633590       -3.9859017335        1.5227668744
 H          1.9045482868       -2.0766592107        1.7075515386
