  93
       -156.30780968
 F         -2.6581912122       -2.9865233911       -2.1040532134
 C         -2.5981091364       -3.4010070482       -0.8314230530
 F         -1.4454821787       -2.9081463800       -0.3304998690
 F         -2.4458996632       -4.7331263866       -0.8676318390
 C         -3.7801363504       -2.9667150024       -0.0129875459
 C         -4.1740541441       -3.7211194502        1.0842829877
 C         -5.2220975860       -3.2735771898        1.8714333631
 C         -5.8520024269       -2.0767288390        1.5852048825
 C         -5.4542055418       -1.3252049663        0.4807519867
 N         -6.0281907537       -0.0752161251        0.2232874465
 C         -5.3057155952        1.1038952891        0.1316736064
 C         -3.8538361488        1.1642366285        0.2146237821
 C         -3.1305424300        0.4358592798        1.1584617183
 C         -1.7517674410        0.4660165803        1.1531752442
 C         -1.0561074166        1.2352913082        0.2219783243
 C          0.4115087740        1.2259584707        0.1963302647
 C          1.1114748690        0.0297973499        0.3451159858
 C          2.4908332866        0.0131315372        0.3111189581
 C          3.2157680800        1.1917566111        0.1433784400
 C          4.6836399954        1.1767448502        0.1126088465
 C          5.3720601311        0.1728506274       -0.5667434938
 C          6.7511555252        0.1592539922       -0.6079915814
 C          7.4839098131        1.1491975320        0.0454044525
 C          8.9361316405        1.2017979844        0.0099455406
 N          9.6007445880        2.3255873554       -0.0072655252
 C         10.9216477634        1.9888996622       -0.0988738801
 C         12.0545839244        2.7940513426       -0.1496968779
 C         13.2805198640        2.1688544112       -0.2265237008
 C         13.3936095475        0.7769365756       -0.2419154829
 C         12.2828390155       -0.0414896559       -0.1935753876
 C         11.0457632498        0.5798833401       -0.1380490912
 N          9.7586907294        0.0938767530       -0.0661933163
 C          9.4075069741       -1.2608503268        0.0404392276
 C          8.5940288920       -1.6923428408        1.0839546499
 C          8.2644759083       -3.0304009173        1.1876512731
 C          8.7510036169       -3.9438447247        0.2663342965
 C          9.5656785628       -3.5145947413       -0.7678107455
 C          9.8937924080       -2.1762324731       -0.8869143126
 C          6.7991458937        2.1637764233        0.7148303113
 C          5.4213349437        2.1756174835        0.7477545307
 C          2.5140147295        2.3874420694       -0.0003312276
 C          1.1344470637        2.4033750993        0.0173926274
 C         -1.7850137109        2.0083044143       -0.6804456019
 C         -3.1638064831        1.9734372117       -0.6864389707
 N         -6.0787931019        2.1393483253       -0.0400594584
 C         -7.3539329043        1.6624906478       -0.0590272200
 C         -8.5593576186        2.4082331647       -0.1752953978
 C         -8.5410752206        3.8029032295       -0.2832821193
 C         -9.7169623792        4.5066880370       -0.3537592000
 C        -10.9293892403        3.8202877022       -0.3118534314
 C        -10.9586076670        2.4490714246       -0.2129401707
 C         -9.7780857934        1.6924142010       -0.1498675616
 C         -9.7725554442        0.2413002852       -0.0907481485
 C        -10.9602347231       -0.5014291583       -0.1576825508
 C        -10.9623632014       -1.8758691284       -0.1630880930
 C         -9.7605416973       -2.5760052071       -0.1258127331
 C         -8.5756170555       -1.8873469459       -0.0471434932
 C         -8.5534068954       -0.4856665304        0.0012312036
 C         -7.3560457199        0.2784443199        0.0919835084
 C         -4.4183181810       -1.7783109731       -0.3303472024
 H         -3.6666872264       -4.6446076202        1.3148320781
 H         -5.5367520824       -3.8538685467        2.7246596244
 H         -6.6506545669       -1.7114848846        2.2137806868
 H         -3.6464469831       -0.1430216825        1.9109753191
 H         -1.2033484860       -0.1017116310        1.8900329104
 H          0.5651205312       -0.8950432306        0.4609355173
 H          3.0171491062       -0.9222711336        0.4346717214
 H          4.8173306296       -0.5893884496       -1.0941385282
 H          7.2573771688       -0.6107018571       -1.1714471795
 H         11.9618905479        3.8677711416       -0.1244933581
 H         14.1803746602        2.7646125763       -0.2699234916
 H         14.3757171914        0.3303751817       -0.2925830300
 H         12.3769728469       -1.1173725181       -0.1927526742
 H          8.2248710138       -0.9758355454        1.8026700660
 H          7.6308191864       -3.3626110339        1.9962992410
 H          8.4955211881       -4.9889033976        0.3543795266
 H          9.9441789820       -4.2233029089       -1.4894274519
 H         10.5129099533       -1.8315565756       -1.7018707875
 H          7.3725123775        2.9362722704        1.2029391034
 H          4.9055646641        2.9563813715        1.2873364339
 H          3.0579886737        3.3086479603       -0.1498361679
 H          0.6079110852        3.3409785686       -0.0871126445
 H         -1.2622737453        2.6170262576       -1.4032593369
 H         -3.7285898214        2.5590977464       -1.3952715755
 H         -7.5810732744        4.2948675615       -0.3005390560
 H         -9.7090386785        5.5834916787       -0.4355907479
 H        -11.8574471775        4.3715488063       -0.3587462696
 H        -11.9202304559        1.9620060818       -0.1814094127
 H        -11.9078805397        0.0084844264       -0.2191303512
 H        -11.8975181758       -2.4133887938       -0.2157062173
 H         -9.7584345337       -3.6551669164       -0.1652126925
 H         -7.6458077680       -2.4344947831       -0.0459129980
 H         -4.1090374993       -1.2025961306       -1.1889899957
