29
 energy: -47.402426596891 gnorm: 0.000017435769 xtb: 6.7.1 (edcfbbe)
C            0.59650406339452        3.52989213812110        0.00005112758935
C            1.80093118937649        2.85490352516386        0.00003724409149
C            1.84244373899833        1.45769254815769        0.00003129818343
C            3.07902569153930        0.74817246048600       -0.00006051789444
C            3.11236978159757       -0.60341583148262       -0.00004149934447
C            1.91131134688234       -1.37190415684259        0.00016384602826
C            1.93921685830834       -2.76958397109356        0.00040503005734
C            0.76995577835546       -3.50216313828338        0.00077081537242
C           -0.45800519214434       -2.86245621432226        0.00071838039832
C           -0.52829909166717       -1.47194191008817        0.00033599825635
C           -1.74113654980121       -0.73236057087469        0.00011951457395
N           -3.04912019922775       -1.13885132607384       -0.00002862349693
C           -3.80390788988653       -0.00652069997831       -0.00027215535204
N           -3.08974417740563        1.07893157101934       -0.00023117069984
C           -1.78947747960811        0.65956361136372        0.00000640300541
C           -0.59612479661462        1.44036393205424        0.00005076709008
C           -0.59853001738836        2.83040759195017        0.00003294235506
C            0.62963282321642        0.72493650556853        0.00008167187986
C            0.66520299010417       -0.69882662676888        0.00018519232083
H            0.58607350143372        4.61026039653393        0.00008437483035
H            2.73164134866846        3.40462709563093        0.00005055453712
H            3.99448246936869        1.32312655068381       -0.00014638151762
H            4.05401119200164       -1.13424620848394       -0.00013129285653
H            2.89463463346793       -3.27435735912374        0.00036064596346
H            0.80996757138245       -4.58184900070452        0.00111753494246
H           -1.36682392484973       -3.44785105954714        0.00105573804293
H           -3.38286652351679       -2.08788849392365       -0.00013452458446
H           -4.87602117997853       -0.02693159371300       -0.00046279163118
H           -1.54804041040302        3.34233466365032        0.00005279179979
