29
 energy: -47.324110452110 gnorm: 0.000066561360 xtb: 6.7.1 (edcfbbe)
C            0.53855686000053        3.56244363127077        0.00126580262190
C            1.75386766150963        2.91205538813120        0.00052384166634
C            1.82900808940511        1.48113459078915       -0.00022964979622
C            3.04773564192484        0.81608502034165       -0.00125935417113
C            3.10037284529333       -0.58473898837948       -0.00145777086561
C            1.93672309966755       -1.34235040609261       -0.00048280424807
C            1.97507641869405       -2.77532951294089       -0.00003895930601
C            0.81240228774316       -3.51807417307406        0.00119905125050
C           -0.42130854626287       -2.90159941456093        0.00150434878306
C           -0.50984964374708       -1.47297853771993        0.00059729676484
C           -1.71350692504103       -0.77335760879040        0.00011454660170
N           -3.02326589135134       -1.18420984148635       -0.00042021562701
C           -3.78711499960216       -0.04991870694224       -0.00101525951345
N           -3.09387657476878        1.04283395687648       -0.00066078334721
C           -1.78156324052740        0.64939628072754        0.00000109739577
C           -0.61653601283611        1.42451016401711        0.00039527995668
C           -0.64432920313757        2.84845297795872        0.00105425441731
C            0.61815012031296        0.73161619584223        0.00008223235986
C            0.67281415613083       -0.68964898019885        0.00008204333656
H            0.51066557819298        4.64286038923900        0.00196708249758
H            2.67790411634014        3.47068025252570        0.00057719380990
H            3.96605934369982        1.38455851993144       -0.00184085514514
H            4.05889038306174       -1.08268504170194       -0.00228662714574
H            2.93829686281320       -3.26218868960046       -0.00047109989978
H            0.86822668399593       -4.59761129734645        0.00202465422563
H           -1.32788614239219       -3.48767829993112        0.00261480937887
H           -3.35382797535082       -2.13361596168626       -0.00109312233554
H           -4.85965238543717       -0.08434252348524       -0.00169184969557
H           -1.60592428827003        3.33458052109362        0.00146112663772
