86
 energy: -130.951384201277 gnorm: 0.000081184247 xtb: 6.7.1 (edcfbbe)
C           13.02562100510441        0.15868103162111       -0.40157657761097
C           12.22687264808912       -1.13051403856408       -0.15828196723309
C           12.75690964947133       -1.78935296552039        1.11878051775666
C           12.44320737459836       -2.10594374293692       -1.32490279081945
C           10.74806965613763       -0.78384211250508       -0.06917613093816
C           10.11513812161696       -0.19390501294725       -1.16154751974987
C            8.77437996106168        0.13532362604342       -1.13189378447658
C            8.03273650092542       -0.11321666483681        0.01114579443238
N            6.63920301714906        0.23001487939974        0.05243898243993
C            6.32590544995949        1.57893844399751        0.09070013215643
O            7.21021005892740        2.41945623788883        0.10965072808452
C            4.89787638625967        1.91582633268704        0.11498318455674
C            4.51889943086215        3.24447073595356        0.11854836300415
C            3.16781797834027        3.58306056295499        0.12743311174708
C            2.20464268353984        2.60380284812952        0.15559965495927
C            2.54342191815047        1.23646510610108        0.18035090639969
C            1.56784760836676        0.18777335227200        0.21615319003567
C            0.15866155020747        0.48770173003051        0.33716882157993
C           -0.83412496143214       -0.31123820609706       -0.09750924432859
C           -2.25306119074974       -0.06919567823701        0.02412239024885
C           -2.79151399521722        1.06394692734151        0.68536718757871
C           -4.13718309794062        1.24965384085541        0.78452641512695
C           -5.04897448964675        0.31776178367285        0.23567658601914
C           -6.43778063998693        0.48166931845338        0.33920379879798
C           -7.30730237586106       -0.44603410713891       -0.19932671155820
N           -8.68712967885517       -0.28023634407840       -0.10866873150930
C           -9.25203597340080        1.00405614129246       -0.12606362595968
C          -10.32811431432048        1.31105966680542        0.70582501459111
C          -10.89047887513382        2.57317334081660        0.67879568008166
C          -10.38774754048049        3.54724379321176       -0.16863400461229
C           -9.31702231032244        3.24739572815964       -0.99576109420511
C           -8.75322995334612        1.98602641717844       -0.98149591477087
C           -9.52474083375261       -1.39656130125363        0.02953020093678
C           -9.14158384039377       -2.47491067284677        0.82681883861730
C           -9.96991018797860       -3.57356102330604        0.95534511651619
C          -11.19187473516697       -3.61101156961099        0.30318827317777
C          -11.57988491817036       -2.53890265782099       -0.48458124384043
C          -10.75472949509792       -1.43968903362598       -0.62637423270154
C           -6.78040302763250       -1.57874510212686       -0.86624520107239
C           -5.43448790492247       -1.76041670919269       -0.97335425070197
C           -4.52502290614075       -0.82544152654051       -0.42731892347612
C           -3.13580181651965       -0.98789068172972       -0.51921373902910
C            2.00811683723910       -1.13022993854612        0.17149820255108
C            3.35428157043277       -1.45218226303791        0.10874157454566
C            4.31892946922862       -0.45787599928493        0.09955499583029
C            3.92240239129119        0.89541602574489        0.13495815446361
C            5.73229396916733       -0.82318189419432        0.04368870244973
O            6.12867603880310       -1.97613580597506       -0.01660056513088
C            8.63839168225748       -0.69269563685700        1.11115829310204
C            9.98121930253145       -1.02605578371817        1.06443707634075
H           14.08930625850729       -0.06467757347964       -0.44758727427086
H           12.85438740062261        0.86530910803149        0.40807922717577
H           12.73589712310034        0.63448062943636       -1.33423025690676
H           12.65770279496716       -1.12395851325712        1.97321141294882
H           12.23186708189463       -2.71906857262440        1.32549259079230
H           13.81290921557889       -2.01996422005003        0.99383324209638
H           13.49267316907283       -2.38562062033425       -1.38663093185596
H           12.15281996804277       -1.66243269297565       -2.27299308136253
H           11.85264225204368       -3.00762038395783       -1.17541492919173
H           10.67039977430022        0.01490362689364       -2.06288566383626
H            8.30159726896999        0.59019144589997       -1.99047188840744
H            5.28790977956297        4.00251896008634        0.10486766324424
H            2.88119592744541        4.62352772624803        0.11039199182512
H            1.16690880222745        2.89579966361171        0.14395286865340
H           -0.08890124890866        1.42446480314412        0.81132795703954
H           -0.57963590481830       -1.22433835998851       -0.62024818348204
H           -2.12484371233291        1.79205856860617        1.12012513529390
H           -4.53266706414608        2.11903454737737        1.29083744900287
H           -6.82570118633512        1.34908144528531        0.85389880616720
H          -10.71710164575250        0.55531195943701        1.37267038681840
H          -11.72199019637358        2.79911345060480        1.33039453682650
H          -10.82741284325119        4.53322428767279       -0.18476266986069
H           -8.92290478363130        3.99873285443476       -1.66454594147260
H           -7.92496022539762        1.75200561552246       -1.63440167220882
H           -8.19468904376992       -2.44217168418371        1.34619189345836
H           -9.66253154536044       -4.40155955540764        1.57740012725475
H          -11.83777480815560       -4.46972339819674        0.40858647794888
H          -12.52912024753995       -2.56155802812814       -0.99982256069696
H          -11.05523395455204       -0.60818199470471       -1.24722587747521
H           -7.46533111527372       -2.29171014650421       -1.30117316064786
H           -5.04380931524807       -2.62446915240609       -1.49162410174423
H           -2.75292388085116       -1.86239348323532       -1.02773297050355
H            1.28697400080164       -1.93089419645782        0.22007002685655
H            3.67789219036587       -2.48243850767222        0.08145160772050
H            8.05841992290406       -0.88851406357092        2.00165920424705
H           10.41819616978121       -1.47894720817213        1.93884459762582
