86
 energy: -130.951022320805 gnorm: 0.000048376740 xtb: 6.7.1 (edcfbbe)
C           12.51782766562282        1.07273842438261       -0.62508998017781
C           11.92491333079550       -0.25188671098806       -0.12184914670149
C           12.57061701781967       -0.58230598738740        1.22715338608688
C           12.26260107740020       -1.38221558887757       -1.10539068189311
C           10.41276818900347       -0.11164026865714       -0.02905203538643
C            9.68057601923765        0.19784796385630       -1.17356206842029
C            8.30776919347647        0.34531040435710       -1.13877754082597
C            7.63083315183570        0.17419797388799        0.05721211004460
N            6.20351754112116        0.32302666325853        0.10879743515983
C            5.71423369305104        1.44804882560501        0.75187229009030
O            6.47968610821992        2.27904486027764        1.21284052048836
C            4.25409970347892        1.56809850827893        0.83500134963841
C            3.70459607530035        2.64751383879743        1.49961622404537
C            2.32116666780844        2.76576004296387        1.60875341352815
C            1.49492807316363        1.82463796929123        1.04396153035503
C            2.00805627268458        0.72208872415966        0.33240836569463
C            1.17835809499460       -0.27507404008132       -0.27771393528401
C           -0.26180092786592       -0.15494262535862       -0.25766315832000
C           -1.12143503702691       -1.18598567811296       -0.36501081511715
C           -2.56453260473105       -1.10924180269586       -0.34631217307827
C           -3.29944668487625       -2.30650048653968       -0.54724961640561
C           -4.66122700972323       -2.31753354155149       -0.53558205580214
C           -5.39470886956037       -1.12959944743651       -0.31152327024670
C           -6.79682467538347       -1.11127906992778       -0.28639083724246
C           -7.49096184041881        0.05977858778454       -0.05723203220069
N           -8.88282880094007        0.07482549987374       -0.00740994346261
C           -9.58546584755535       -1.03102644437762        0.49496584651986
C          -10.77122349877855       -1.44647759337021       -0.10953013716345
C          -11.46683089315728       -2.52909659318397        0.39461362021391
C          -10.99099928887647       -3.21596935500051        1.49980578664453
C           -9.81213599137953       -2.80758065426985        2.10316682577091
C           -9.11363864421308       -1.72193205074421        1.61080676083541
C           -9.59562978729147        1.18676646791835       -0.47766336583784
C           -9.17117232518970        1.86948612572142       -1.61746941137096
C           -9.87481126905022        2.96843307371881       -2.07234800324795
C          -11.01324730152229        3.39650429667807       -1.40862334296655
C          -11.44359826832388        2.71628472849848       -0.28047294687077
C          -10.74159280280956        1.62207268020272        0.18750962284695
C           -6.76834614818051        1.26059155229609        0.14706142851150
C           -5.40663190621316        1.26696582935916        0.11837430800551
C           -4.67326177969819        0.07917465412993       -0.11059303855333
C           -3.27180231527864        0.06128351399865       -0.13410016791714
C            1.79154764434612       -1.34784960695628       -0.91559275045772
C            3.16955601716727       -1.47556595837929       -0.97726669401046
C            3.99403462152672       -0.51884121090116       -0.40794426338969
C            3.42100803552338        0.59017452083522        0.24909578552686
C            5.44421897898905       -0.67842367173521       -0.48414001600027
O            5.99067135556209       -1.63009443282623       -1.01879597199156
C            8.33338998739376       -0.14124507360886        1.20607563084596
C            9.71004545992933       -0.27726880679961        1.15865468544598
H           13.60250700949601        1.00255244967605       -0.66914025971746
H           12.24998981380417        1.88414839600429        0.04880541788984
H           12.15182367284415        1.32000918723864       -1.61750391554631
H           13.64791878334091       -0.66760390911909        1.10023371195863
H           12.37912327642293        0.20294324145299        1.95479182519144
H           12.20241609627826       -1.52882718648080        1.61592995383533
H           13.34101066847379       -1.50985947097065       -1.17038436974506
H           11.88350180582859       -1.16878664567440       -2.10077055969190
H           11.82283347769231       -2.31846664664725       -0.76747816989320
H           10.18301377771947        0.33322874572561       -2.11886917017662
H            7.75840683938619        0.58754174545220       -2.03709975747774
H            4.36748153517954        3.38060768117548        1.93467019355574
H            1.90044010839547        3.60243592220563        2.14532976905711
H            0.42935546218530        1.93410819947139        1.16400731683242
H           -0.65636634165371        0.84205105334712       -0.14179155117583
H           -0.72811345372845       -2.19070592295815       -0.44941534580390
H           -2.75500721977848       -3.22520284921148       -0.71526476658748
H           -5.20440118938777       -3.23873879609492       -0.69276366409132
H           -7.33517077029427       -2.03406119705188       -0.44904627704608
H          -11.14078888579794       -0.91682632823479       -0.97561540190468
H          -12.38296827615786       -2.84269450034713       -0.08435861727012
H          -11.53543275284908       -4.06322796765177        1.88889432785407
H           -9.43733087525515       -3.33278957957479        2.96965547329728
H           -8.19967229584575       -1.39990225554327        2.08845339137225
H           -8.29130255105322        1.52962053486525       -2.14428257849072
H           -9.53634598603572        3.48794981291773       -2.95700699080216
H          -11.56256283962183        4.25331540390829       -1.76882590252848
H          -12.32846584399753        3.04508506608619        0.24480807921315
H          -11.07400215739114        1.09837519600486        1.07205990903452
H           -7.31668470738501        2.17059481933176        0.34186920561224
H           -4.86622669626828        2.18782511014664        0.28505060498259
H           -2.75389566460631        0.99438080862654        0.02826685361723
H            1.18282161564955       -2.09206069576019       -1.40417717984201
H            3.62731179329305       -2.31540754364998       -1.47927783453487
H            7.80387924714883       -0.27387478841445        2.13877097318746
H           10.22403506653558       -0.51881912060759        2.07407477990984
