86
 energy: -130.899581179161 gnorm: 0.000190860489 xtb: 6.7.1 (edcfbbe)
C           12.48424084140340       -1.70369857536844       -1.66222902764862
C           12.23106244179221       -1.06561840283376       -0.28829895927491
C           13.03523762316970        0.23683372912257       -0.16204780512882
C           12.72364973007124       -2.03803120822767        0.78764962898711
C           10.74884909281369       -0.74622796473880       -0.15640040868149
C           10.15226898447522        0.12828354928020       -1.06233050348804
C            8.81077833642359        0.44704178173243       -0.98646885062036
C            8.02879826977253       -0.10334716779416        0.01586689655485
N            6.63676075418588        0.22356755943107        0.10407917156903
C            6.31273677158936        1.49654158429196        0.54024637850189
O            7.20082412205721        2.28901821134546        0.84856187959593
C            4.89396840204461        1.81485373015252        0.61436393539018
C            4.51108477621468        3.08820698258655        1.03656409595373
C            3.17152975604295        3.40746059681452        1.11096779692941
C            2.20324999339280        2.47238015628009        0.77542928703077
C            2.53426919648662        1.18120366546364        0.35259235376929
C            1.55282478858081        0.17400044484356       -0.00039614212238
C            0.17417365528091        0.43438386833415        0.08459937526353
C           -0.86023834445201       -0.43416594329525       -0.22140907130049
C           -2.24063998828127       -0.15185370701727       -0.11754428361195
C           -2.76618563838310        1.09758276052230        0.33077434542930
C           -4.10197709487370        1.31629778676054        0.41694489492574
C           -5.04304480622499        0.31027937845555        0.06032548424443
C           -6.41522290347853        0.51869199272837        0.14522532391071
C           -7.31984786605066       -0.48688960868808       -0.19436112635099
N           -8.68200730788192       -0.27047938314377       -0.10262141773718
C           -9.21310047804321        1.01218732497581       -0.30226261875252
C          -10.25696569203641        1.47255309427893        0.50156137066551
C          -10.78259491897217        2.73360053923993        0.29655101442738
C          -10.27864609666847        3.54910608988945       -0.70532780343722
C           -9.24330049255023        3.09394910891142       -1.50754840788933
C           -8.71119014294608        1.83409486130296       -1.31288856541658
C           -9.55458972039015       -1.32371000538620        0.20456313369883
C           -9.19346399968787       -2.28720354773914        1.14808280672874
C          -10.06161407314518       -3.31838377669629        1.44998402757737
C          -11.29595942108203       -3.40179635306241        0.82386714121254
C          -11.66023948190659       -2.44334348216413       -0.10963314289239
C          -10.79900244285576       -1.40936298760944       -0.42175617764590
C           -6.82266866304721       -1.73635535448525       -0.64075827477071
C           -5.48302200259991       -1.95513461962978       -0.73917030054710
C           -4.54168505558955       -0.94983533683361       -0.38839285076022
C           -3.16998167676668       -1.15171353115640       -0.46752556948460
C            2.03338549806670       -1.09388896735470       -0.42891951714721
C            3.36260625665079       -1.38565341312679       -0.50789076688019
C            4.33206535234081       -0.42502101603204       -0.16040142842744
C            3.91972293718274        0.85485560645028        0.26875079987873
C            5.73132211042943       -0.76910171344068       -0.25900070340835
O            6.14269996928684       -1.86391696454290       -0.64625313835152
C            8.59903475965609       -0.97172939449711        0.92906237444292
C            9.94328662525876       -1.28913499211679        0.83740890383607
H           13.53657148674316       -1.95912363578690       -1.76699891603626
H           12.21455242384763       -1.02784878282057       -2.46883296270035
H           11.89412737651325       -2.61189633174846       -1.76794381703392
H           12.83256005866434        0.71135700108900        0.79607196291124
H           14.10055959173496        0.02587508679519       -0.22679628056973
H           12.77744451635212        0.93945549486438       -0.94936516229680
H           12.20018777836751       -2.98906798539779        0.72318718604632
H           12.58729262533744       -1.62105440392103        1.78271283369607
H           13.78555174699301       -2.22746843931464        0.64424004734146
H           10.73737010890372        0.57455198388854       -1.85198928362652
H            8.36586552026315        1.12744352011398       -1.69872203665678
H            5.28360051507148        3.79703692343759        1.29432646497793
H            2.87057088349903        4.39336380917253        1.43308739128319
H            1.17203292748502        2.77636483587163        0.85031989730305
H           -0.10910191364145        1.41581804241170        0.42865154986035
H           -0.62257403223199       -1.42719180861159       -0.57457165632064
H           -2.08495574469345        1.88620809826621        0.60818978046352
H           -4.47880638047369        2.27003023447310        0.75803736175985
H           -6.78174407914832        1.46777071486579        0.50840367862629
H          -10.63985901819379        0.84225988884989        1.29037282351932
H          -11.58525715662954        3.08496688012358        0.92741884536218
H          -10.69176036417249        4.53397691458537       -0.86122482586762
H           -8.85343919434262        3.72035234279914       -2.29586457506254
H           -7.91655243757531        1.47231316440571       -1.94851709292189
H           -8.23991458737431       -2.21118972558421        1.64931772328077
H           -9.77631186101296       -4.05622595250067        2.18478043188896
H          -11.97118165993147       -4.20893453279605        1.06357900416946
H          -12.61840217908490       -2.50587399412646       -0.60326740148336
H          -11.07707720737715       -0.67005887339001       -1.15805572436725
H           -7.52420857481267       -2.50509173614671       -0.92789375348283
H           -5.11327561812605       -2.90291528007916       -1.10142668457747
H           -2.80132149809283       -2.11048249276000       -0.80427268647494
H            1.32292936961898       -1.85724588780490       -0.70082995067090
H            3.71233887800451       -2.35377685807196       -0.83505257028029
H            7.98747997780831       -1.40384618928945        1.70850330669783
H           10.35005291974657       -1.97159623741069        1.56535730374873
