86
 energy: -130.899509996894 gnorm: 0.000059313037 xtb: 6.7.1 (edcfbbe)
C           13.02870119289373        0.19821188965296       -0.29897587408644
C           12.22682605875451       -1.09702810557939       -0.10298029358067
C           12.73782128870022       -1.78908013697364        1.16427869830289
C           12.46199508885535       -2.04067238982307       -1.29181439369254
C           10.74562482283197       -0.75529874011280       -0.02802286193778
C           10.13273498967732       -0.12024095556852       -1.10623767581031
C            8.79114220183899        0.20663193984308       -1.08791793237101
C            8.02546070149215       -0.09404616802351        0.02645064581504
N            6.63213272965341        0.24253784628545        0.05374523019337
C            6.30831671925469        1.56355425221884        0.30691512211562
O            7.19713259400114        2.38891583189889        0.50921623575469
C            4.88982615248644        1.89016335143200        0.32169093290812
C            4.50348204359691        3.21052809063177        0.55420581504331
C            3.16434579128387        3.54052324125468        0.55097946784002
C            2.19846502233620        2.56813284079187        0.33583079186733
C            2.53338955854770        1.22704833922599        0.12450078394726
C            1.55363392105960        0.18190992185358       -0.09175023263845
C            0.17562820287568        0.43838859174306        0.01711379647862
C           -0.85816674946574       -0.42774954014569       -0.29581376985816
C           -2.23727485922099       -0.16712209404721       -0.13392576724694
C           -2.75461933882162        1.01099605207823        0.48444532678329
C           -4.08878111389173        1.21366847850848        0.62103666199141
C           -5.03571390897460        0.26293521800696        0.14716771748803
C           -6.40664702873514        0.45989277669842        0.27202221992593
C           -7.31676018717039       -0.49219978799016       -0.18653363828507
N           -8.67778168908587       -0.28624558982049       -0.06252068818983
C           -9.20952115386482        1.01079662123060       -0.09527364950345
C          -10.26091075906267        1.35905434802242        0.75413678705208
C          -10.78857872823989        2.63511500910765        0.71430836354507
C          -10.27942867524004        3.57737882163669       -0.16636823457655
C           -9.23664162013903        3.23436514911428       -1.01350173337508
C           -8.70270746131833        1.96070672510619       -0.98413125031244
C           -9.55069023189185       -1.37071090499695        0.10720124730275
C           -9.19535570270199       -2.43910754189407        0.93224193633482
C          -10.06362608395507       -3.50025222952602        1.10088297273842
C          -11.29174249392268       -3.51007966063846        0.45725079230996
C          -11.64933197426279       -2.44840887554825       -0.35987710881323
C          -10.78823157870323       -1.38288645134364       -0.53769979444292
C           -6.82655100522960       -1.67688158460921       -0.78988983885727
C           -5.48855304954668       -1.88215185773688       -0.92960861419577
C           -4.54184013466370       -0.92901450319867       -0.46606184121312
C           -3.17153634931415       -1.11814797728600       -0.58965856349880
C            2.03346154387477       -1.12543089788927       -0.37742099605175
C            3.36303481498564       -1.42629606734798       -0.40548247941267
C            4.33116238836963       -0.43343455032340       -0.15874380773016
C            3.91846405723955        0.89158176643260        0.09949325130881
C            5.73071109650762       -0.78943324466362       -0.18645173520050
O            6.14704691449590       -1.92703097056179       -0.41155341304767
C            8.61161559388139       -0.72124039016660        1.11056384727820
C            9.95660659302510       -1.04769586168384        1.07798063245769
H           14.09365443268053       -0.02243172816814       -0.32628737145711
H           12.83721063212572        0.88593194800348        0.52228702515527
H           12.75877412087151        0.69472973273562       -1.22668350227566
H           12.61627503319184       -1.14918336060409        2.03518210420757
H           12.21543255518923       -2.72768754458935        1.33401738287048
H           13.79771488417212       -2.00870074319862        1.05291596319172
H           13.51404695605300       -2.31132939971416       -1.35073317642593
H           12.17591633737904       -1.57445379061350       -2.23033443313791
H           11.87565146170490       -2.94942313742828       -1.17126693061291
H           10.70485778030682        0.12793777819836       -1.98717048631317
H            8.33301426758421        0.69949272673708       -1.93386781861054
H            5.27398490350175        3.94790148187839        0.72258310285664
H            2.86231181363861        4.56430938264426        0.71511996708869
H            1.16701682823472        2.88097800603995        0.32651453575957
H           -0.10388346781264        1.41522466605171        0.37837018012317
H           -0.61986806568751       -1.38772083829327       -0.73101594780197
H           -2.06738753869405        1.75177578399321        0.86148750405333
H           -4.45965329167256        2.11180380573040        1.09410345061438
H           -6.76769098772426        1.35511248711956        0.75705868050039
H          -10.64888840709220        0.62921879056772        1.44895595724695
H          -11.59718265966562        2.89781047296818        1.37974503669374
H          -10.69403872203934        4.57350502518943       -0.19360846051600
H           -8.84206677746087        3.96077354209205       -1.70806465763174
H           -7.90274062430740        1.68839590184667       -1.65660236866360
H           -8.24633912090068       -2.42154250198356        1.44746888187132
H           -9.78368729190138       -4.31963871684615        1.74578639636979
H          -11.96760147900149       -4.34053740254361        0.59292750411723
H          -12.60219241734146       -2.45339213811640       -0.86748111507367
H          -11.06069862943162       -0.56146796247174       -1.18349172472556
H           -7.53248344516092       -2.40273188814569       -1.16442526789478
H           -5.12426759146202       -2.77705935396724       -1.41197015956010
H           -2.80836833541813       -2.02529852480912       -1.05193148358835
H            1.32181689984605       -1.91674815735010       -0.54844248444421
H            3.71377280004211       -2.42747414417446       -0.60850845910740
H            8.01270856371114       -0.95694096604823        1.97904539949989
H           10.37682240864497       -1.53696940609550        1.94118995269691
