  55
  -79.8215062839000       0.683109132040863      !
 C         -3.3067733715       -0.3693246220        2.3094112827
 C         -3.7677402801       -0.1040626863        0.8605055258
 C         -5.2836340413        0.0866530223        0.8690908688
 C         -3.3286865072       -1.2725073568        0.0014091304
 C         -4.1806697044       -2.2647095229       -0.4570497571
 C         -3.7047739532       -3.3266855414       -1.2069610084
 C         -2.3617241486       -3.3953676421       -1.5324649801
 C         -1.4982785005       -2.4070030910       -1.1046561235
 C         -1.9688615244       -1.3573456186       -0.3192461208
 N         -1.1222883896       -0.3162533557        0.0727798531
 C          0.2457171421       -0.4830875549        0.2169006890
 C          0.6843152103       -1.7121722054        0.7652449818
 C          2.0062580106       -1.9687318055        0.9256334631
 C          2.9669167264       -1.0240047536        0.5044017240
 C          4.3329566578       -1.3318000251        0.5950948310
 C          5.2895039047       -0.4403665212        0.1626809493
 C          6.6623492323       -0.7528831354        0.2533456635
 N          7.7796885291       -1.0032744848        0.3257567397
 C          4.8800290590        0.7915411621       -0.3893373208
 C          3.5559906424        1.1110702520       -0.4657671983
 C          2.5369066323        0.2350594869       -0.0101152783
 C          1.1449705008        0.5276884005       -0.0850832438
 C          0.6330492825        1.8974261074       -0.5142213104
 C          0.8078177245        2.0435292750       -2.0405301725
 C          1.3582657300        3.0160853043        0.2777144657
 C         -0.8577597544        2.0506206125       -0.2537688078
 C         -1.4583951082        3.2975813633       -0.3711187450
 C         -2.8137113577        3.4549326847       -0.1586926499
 C         -3.5918530641        2.3740910768        0.2206840099
 C         -3.0270072962        1.1184047867        0.3521231459
 C         -1.6657106576        0.9653662666        0.0606841464
 H         -3.5745090017        0.4726273996        2.9444051914
 H         -2.2296942469       -0.5074245015        2.3605361926
 H         -3.7879525591       -1.2664321969        2.6937170404
 H         -5.5520509848        0.9228900885        1.5096233752
 H         -5.6592672474        0.2727288687       -0.1346157246
 H         -5.7714233727       -0.7969736478        1.2728627861
 H         -5.2330184447       -2.2238616968       -0.2280265662
 H         -4.3851231232       -4.0947848954       -1.5420384211
 H         -1.9861652753       -4.2100118416       -2.1331955353
 H         -0.4568611218       -2.4382838576       -1.3888525333
 H         -0.0596755569       -2.4303415984        1.0758143121
 H          2.3405623721       -2.8967833197        1.3647386288
 H          4.6277594034       -2.2885955116        1.0026600670
 H          5.6305362635        1.4783944645       -0.7525098588
 H          3.2982794153        2.0572664337       -0.9066875916
 H          1.8370550855        1.8954134098       -2.3525499935
 H          0.1942788842        1.2990220147       -2.5462395395
 H          0.4798318283        3.0284746232       -2.3645309042
 H          0.6581043299        3.5203899438        0.9398966222
 H          2.1474069017        2.6130687608        0.9051830251
 H          1.7878307011        3.7617235024       -0.3872598775
 H         -0.8651891031        4.1555493013       -0.6480364173
 H         -3.2665125635        4.4282159456       -0.2729717770
 H         -4.6404486707        2.5281378524        0.4141222977
  55
  -79.8207804278000       0.316890867959137      !
 C         -5.3024291406        0.0818265832       -0.7860960055
 C         -3.7864664138       -0.1071530061       -0.8018586667
 C         -3.3474594927       -0.3592357105       -2.2597491411
 C         -3.3322045659       -1.2790536404        0.0435917903
 C         -4.1768792105       -2.2702544051        0.5174598713
 C         -3.6894592643       -3.3286222614        1.2647809691
 C         -2.3424217857       -3.3919835310        1.5743609975
 C         -1.4859472497       -2.4053210381        1.1289490227
 C         -1.9672419413       -1.3618845564        0.3417379039
 N         -1.1270222238       -0.3235018774       -0.0755274250
 C          0.2412128043       -0.4924558826       -0.2176102943
 C          0.6801494846       -1.7303261204       -0.7468953979
 C          2.0015501122       -1.9886041242       -0.9098288297
 C          2.9640592179       -1.0403469827       -0.5006826795
 C          4.3304596820       -1.3447345184       -0.5960586145
 C          5.2860209612       -0.4463293664       -0.1757733373
 C          6.6596492667       -0.7529302550       -0.2739225881
 N          7.7778818832       -0.9972056010       -0.3527317402
 C          4.8757433462        0.7853802156        0.3763956198
 C          3.5510115412        1.1011681908        0.4582495714
 C          2.5343323118        0.2225100410        0.0031373753
 C          1.1429394989        0.5197451146        0.0697490167
 C          0.6496224446        1.9192981791        0.4123932614
 C          1.2376676718        2.8971495518       -0.6319405390
 C          1.0247904288        2.3016117042        1.8666688592
 C         -0.8585395600        2.0447653186        0.2660169818
 C         -1.4638169171        3.2852940929        0.4235940721
 C         -2.8252992755        3.4387696633        0.2535619875
 C         -3.6069640911        2.3610687526       -0.1274846487
 C         -3.0390697368        1.1109514570       -0.2926377642
 C         -1.6694992913        0.9589984636       -0.0399498225
 H         -5.5808499230        0.9231344433       -1.4156709255
 H         -5.6635260339        0.2590138953        0.2245254800
 H         -5.7951621939       -0.7990791817       -1.1898708867
 H         -3.6180313797        0.4917287019       -2.8813571279
 H         -2.2724005349       -0.5049005572       -2.3277009296
 H         -3.8407215125       -1.2483266987       -2.6470611753
 H         -5.2323547941       -2.2307341921        0.3029428108
 H         -4.3638787800       -4.0964251328        1.6122708323
 H         -1.9581360274       -4.2009539710        2.1772701545
 H         -0.4418061170       -2.4331329147        1.4028658544
 H         -0.0641551510       -2.4524404629       -1.0472906220
 H          2.3338066588       -2.9204887052       -1.3423354050
 H          4.6265246514       -2.3035243592       -0.9978962736
 H          5.6261010583        1.4735101572        0.7375749725
 H          3.2891051761        2.0397831919        0.9128993189
 H          0.7603578087        2.7178887497       -1.5945214894
 H          1.0456414113        3.9276026041       -0.3466190337
 H          2.3062615145        2.7706747201       -0.7650717876
 H          1.6131593434        3.2156866245        1.8998276958
 H          0.1233492366        2.4661393684        2.4538929870
 H          1.5871029573        1.5062944215        2.3497493350
 H         -0.8684579704        4.1408503910        0.7019533825
 H         -3.2796399384        4.4074807384        0.3967115058
 H         -4.6605023893        2.5127948698       -0.2940536236
