108
 energy: -178.108277710494 gnorm: 0.000036496592 xtb: 6.7.1 (edcfbbe)
C           -7.16286155862903        2.04811005620266       -2.09225502588171
C           -7.26789718021309        0.68124312549639       -1.88523695696632
C           -6.12972384231857       -0.09895353235310       -1.82008021958534
C           -4.87129269998398        0.48540086602692       -1.95448322714147
C           -3.66505799970753       -0.33383429683205       -1.84094133949319
N           -2.50611245024929        0.31038645499500       -1.70331078851098
C           -1.39137066419408       -0.37898267877809       -1.51294541410972
C           -0.16207621651399        0.35811333218160       -1.18742823477717
C            1.04978622573560        0.02847236819291       -1.78562938979839
C            2.20876928121674        0.69898504271418       -1.45640991414124
C            2.18257383049705        1.71203374336149       -0.49779638806622
N            3.36839467660215        2.36550591041427       -0.15161507037810
C            3.59002395766826        3.72328103935719       -0.33615265890722
C            2.68584363404405        4.74078659894973       -0.59449645384056
C            3.18001856296058        6.02254990821511       -0.75329441704922
C            4.54433623867466        6.28854861032317       -0.66995269805880
C            5.45228956173846        5.27416052880001       -0.43771293082758
C            4.97683825451295        3.97947886611792       -0.27176645970923
C            5.61923927806998        2.71479126075419       -0.04680870807844
C            6.96623244546444        2.36121551724186        0.03568564918661
C            7.31157946558050        1.04320565465038        0.22605933304683
C            6.29586858178117        0.10387679080282        0.40822332287274
C            4.91587598793176        0.42576448771376        0.35771386442062
C            4.20524516387516       -0.78698662861265        0.66703020732714
C            2.87557692889804       -1.10653540728853        0.92928555666146
C            2.54790971742132       -2.40829227955527        1.25023463301893
C            3.52189035169490       -3.39955744505965        1.33963824206615
C            4.85490483619747       -3.10339970772319        1.13908273010351
C            5.18891023390275       -1.79718242665826        0.80910914722143
N            6.43886246603824       -1.24487366480482        0.64756608323889
C            7.65591771888711       -1.94027582838860        0.76495784138847
C            8.61873454757358       -1.52165598534369        1.67779576626359
C            9.81139192020090       -2.21389803547339        1.78681804198050
C           10.04678700242098       -3.32884333024370        0.99889048915900
C            9.08530585658144       -3.75034561430384        0.09497704076321
C            7.89394431757168       -3.05838897477285       -0.02813456573254
C            4.59252656260391        1.74949274919023        0.04426825236195
C            0.97562559976441        2.05960663500467        0.10204676281919
C           -0.19122274230122        1.38953048990789       -0.23545611918806
N           -1.39514321948485        1.72610671853794        0.40693573894065
C           -2.07675244400215        2.91594407624900        0.22927809937531
C           -1.65582463053450        4.09359749237641       -0.36822844898524
C           -2.54793603959599        5.14836927359497       -0.41498191417017
C           -3.83307003251471        5.03746427510050        0.11280192132003
C           -4.26750365262107        3.85963990671616        0.68755559307250
C           -3.38654961097200        2.78752124977572        0.74285966412262
C           -3.49799537959991        1.44169721273002        1.22132156325186
C           -4.50577671836361        0.65557741715375        1.75967850638920
O           -5.79306843720264        1.01672623294045        2.00867234340359
C           -6.41277617527009       -0.10170486969086        2.48928909625188
C           -7.73954846568562       -0.20801701951187        2.86342796577804
C           -8.17110833273797       -1.44057684185798        3.32299945700690
C           -7.30527659572819       -2.52825074396584        3.40458431217857
C           -5.97988396373252       -2.41986763001935        3.02984780729416
C           -5.52356837831338       -1.19238721541813        2.56568203920494
C           -4.26279594023157       -0.69072476912954        2.08718749179394
C           -2.99689013468854       -1.25519658130880        1.91559934637144
C           -1.98083134770764       -0.49530275086619        1.37922589616778
C           -2.24768528902934        0.82149405388066        1.00199349739341
C           -1.43732428095930       -1.77296107981082       -1.54635936080466
S           -0.16289285815506       -2.93376360397951       -1.31099774398515
C           -1.31670312134776       -4.25258394397350       -1.43204141016307
C           -1.01916337787808       -5.60294320793050       -1.34239626525659
C           -2.05493458210036       -6.51040290355762       -1.46158449243641
C           -3.36531496049918       -6.08262623758061       -1.66688824578669
C           -3.66195728876647       -4.73856855749908       -1.75620349267071
C           -2.63196585857581       -3.80837465521627       -1.64061746577710
C           -2.70424423855404       -2.37346631485171       -1.69963259997070
N           -3.80877440657595       -1.65514922328293       -1.83216488348572
C           -4.77253065852962        1.85958938428338       -2.16419605652341
C           -5.91455338770771        2.63347663731487       -2.23527421956637
H           -8.05397665256938        2.65655628431015       -2.14086032708397
H           -8.23976417849060        0.22378524508041       -1.77052456272468
H           -6.19358554897630       -1.16297391938969       -1.65106586661766
H            1.07746744014510       -0.74711708753754       -2.53582750213597
H            3.14224450448832        0.43884153289114       -1.92983440593932
H            1.62832048573503        4.54573531443453       -0.67648692502379
H            2.49278424738591        6.83271889151850       -0.94837519676654
H            4.89333971272808        7.30282174188641       -0.79668498341902
H            6.51114391090719        5.47873450207354       -0.38733023669287
H            7.72769171850882        3.11866298999189       -0.06697534652197
H            8.34591655139138        0.73769380728163        0.24589969363341
H            2.10765019113217       -0.35125321661121        0.91225966448379
H            1.51695133085835       -2.66240679291606        1.44835166060120
H            3.23197824015164       -4.40807616044262        1.59540713353223
H            5.61752431683086       -3.85821315591888        1.25712239829864
H            8.42194616386206       -0.66364756262946        2.30350053859522
H           10.55635366734219       -1.88541646362623        2.49648458010556
H           10.97724331767507       -3.86883918684913        1.08992112421586
H            9.26553436900246       -4.61822523471903       -0.52219163537524
H            7.14630044160751       -3.37291608380335       -0.74135594453292
H            0.94826614444357        2.82177473990467        0.86615963868162
H           -0.66922882251092        4.18040901185070       -0.79664121112316
H           -2.24284214916278        6.07760549301801       -0.87326039346331
H           -4.49951073549031        5.88557872979053        0.06053029594688
H           -5.26709724533709        3.75916187422640        1.08201603547155
H           -8.40269461510434        0.63970298431508        2.79545590652847
H           -9.20092345923732       -1.55998770416453        3.62384161993581
H           -7.68017314713552       -3.47344549383090        3.76812943225483
H           -5.31062952581234       -3.26443952141702        3.09224415897363
H           -2.82293607982129       -2.28276713794652        2.19683837770005
H           -0.99389072192777       -0.91228337482641        1.23968903881786
H           -0.00296683964316       -5.92794098422059       -1.18267959054593
H           -1.84317723098612       -7.56675892104401       -1.39482057486204
H           -4.15509594122096       -6.81274763962872       -1.75606872675941
H           -4.66888839669542       -4.38567858727765       -1.91465799453814
H           -3.79440483855563        2.30318697060054       -2.26488963198372
H           -5.83031079529272        3.69775542833233       -2.39662630203543
