108
 energy: -178.108271845720 gnorm: 0.000059848374 xtb: 6.7.1 (edcfbbe)
C           -7.29899029297806        1.80843483705632       -2.11562001633272
C           -7.36331532605373        0.43779882749215       -1.91700630659632
C           -6.20221550126359       -0.30796153064411       -1.85239304704747
C           -4.96160228474645        0.31494906536637       -1.97959317371314
C           -3.73119207434075       -0.46790460239029       -1.86877111993472
N           -2.59127329626214        0.21068745051659       -1.73777681328377
C           -1.45511660412565       -0.44473378053298       -1.55416991519780
C           -0.24629454021809        0.33025437141476       -1.24000276341088
C            0.96991532080625        0.03477759320738       -1.84717975687670
C            2.11008016943751        0.74384905825594       -1.53339175154013
C            2.05961642919560        1.76356639892980       -0.58304709868027
N            3.22629250783471        2.46031314637236       -0.25576953950902
C            3.40077903790225        3.82120187867164       -0.46529184550415
C            2.46074411193638        4.80256357921745       -0.73514456102013
C            2.91000092298392        6.09720608406208       -0.92035487832028
C            4.26501577555042        6.41069561995847       -0.85096347507096
C            5.20847422262399        5.43198231814786       -0.60744175682199
C            4.77843560211415        4.12509339861721       -0.41530155043889
C            5.46446872361345        2.88681788833584       -0.17335012388454
C            6.82324299856871        2.58095699891350       -0.09386943228550
C            7.21454026107563        1.27932371527051        0.11832715235004
C            6.23245613992996        0.30947795229076        0.32336121989056
C            4.84187197505044        0.58208356872816        0.27323503710203
C            4.17537168210077       -0.65000973362386        0.60411758601786
C            2.85815131892974       -1.01325557943891        0.87231977542421
C            2.57762077342029       -2.32079536857671        1.21395866377822
C            3.58677787838183       -3.27461590776533        1.31941577681385
C            4.90815327241498       -2.93384357582288        1.11279428185025
C            5.19462140848279       -1.62213187093127        0.76070324021703
N            6.42373596738361       -1.02884529406767        0.58599557395889
C            7.66580479338194       -1.67693793516249        0.71221271186041
C            8.61416263790760       -1.20676780767907        1.61510205074718
C            9.83280982360417       -1.85082484706193        1.73161373087519
C           10.10885989331447       -2.96865400786578        0.96117006892132
C            9.16181561143801       -3.44171236322670        0.06761613210200
C            7.94433399050386       -2.79823585877695       -0.06289127180133
C            4.47164302445895        1.88887193653174       -0.05924543453166
C            0.84829953532629        2.07600903603377        0.02713984501929
C           -0.29941465133922        1.36541068374774       -0.29293448811284
N           -1.50643878266913        1.66381575575116        0.36221123369362
C           -2.22883646717734        2.83074861128512        0.19263681591450
C           -1.85325610211930        4.02269884755141       -0.40672668966934
C           -2.78066133053470        5.04701248712772       -0.44397738729331
C           -4.05648261664925        4.89262158347432        0.09525947103821
C           -4.44585512814260        3.70016585522435        0.67214094571308
C           -3.52898071868377        2.65817971942777        0.71776982563023
C           -3.59152329441207        1.30879259486377        1.19503341638076
C           -4.56860547938593        0.48853629219723        1.73904031041544
O           -5.86575672397129        0.80566163693219        1.99669377524473
C           -6.44465493424554       -0.33414606589293        2.47807958497953
C           -7.76502400344773       -0.48607910664901        2.85909907783542
C           -8.15219035338819       -1.73353812185874        3.31805769905165
C           -7.24964432170026       -2.79145783992348        3.39239469251923
C           -5.93077414841058       -2.63758245799556        3.01065139404297
C           -5.51875042281932       -1.39438341123073        2.54681262889612
C           -4.27845607820195       -0.84947547069697        2.06210271015199
C           -2.99535064663650       -1.37051476333855        1.88126198896277
C           -2.00933141553816       -0.57628275748622        1.33859400224526
C           -2.32313849903992        0.73101609454050        0.96444644151004
C           -1.45942850562184       -1.83944727823911       -1.58710291389574
S           -0.14898157386382       -2.96145768850004       -1.36175895554044
C           -1.26355530563552       -4.31436719802478       -1.47417667861569
C           -0.92464052179200       -5.65519228306848       -1.38833690480346
C           -1.93364449833492       -6.59335343116688       -1.49918919410374
C           -3.25808976003291       -6.20513500360623       -1.69241770527993
C           -3.59576405987243       -4.87058699853384       -1.77866217077024
C           -2.59323698498179       -3.90983014390210       -1.67175449113615
C           -2.70893103338899       -2.47772008220019       -1.73076132615458
N           -3.83526108025264       -1.79296162033113       -1.85726637086382
C           -4.90383589313807        1.69272765996132       -2.18133342686672
C           -6.06853463067757        2.43217722434782       -2.25104442597268
H           -8.20795399772167        2.38995623793157       -2.16342344622664
H           -8.32139517151695       -0.04935774413384       -1.80858956729843
H           -6.23415965061929       -1.37438427445179       -1.68967511702046
H            1.01535272658833       -0.74473084635993       -2.59241508206777
H            3.04738136836531        0.50976632204328       -2.01291206129581
H            1.41012652485825        4.56950176228777       -0.80678582595354
H            2.19449605438236        6.88003485013510       -1.12519413734786
H            4.57860819324500        7.43376266137760       -0.99812166097864
H            6.26006142268988        5.67328032148365       -0.56826887764010
H            7.55755874442454        3.36200906550635       -0.21550560578949
H            8.25875650634755        1.00942981051828        0.13719441049886
H            2.06325081932886       -0.28684323432081        0.84329917500367
H            1.55634689998972       -2.60882730403672        1.41603696218517
H            3.33354252924035       -4.28853721393318        1.59220786848929
H            5.69775086996501       -3.65845511733297        1.24242598415379
H            8.38650277230973       -0.34644381950761        2.22708834228239
H           10.56648649188117       -1.48218027757999        2.43324276832099
H           11.05977109932119       -3.47072013833146        1.05784366660293
H            9.37367462077012       -4.31194636552489       -0.53603874650683
H            7.20746619156920       -3.15310769425821       -0.76831858177227
H            0.80440506763971        2.84282816827233        0.78584191718608
H           -0.87406256120979        4.14342863742237       -0.84366751515121
H           -2.51097573196072        5.98645487902488       -0.90367962787837
H           -4.75171435521052        5.71767777580371        0.05023027026049
H           -5.43789095103107        3.56563577808536        1.07543634530792
H           -8.45712028769032        0.33856484102697        2.79649895921883
H           -9.17578905052468       -1.88828296174354        3.62395182044174
H           -7.59050563028356       -3.74954980377687        3.75562748210479
H           -5.23304063288041       -3.45919870194742        3.06745096106608
H           -2.78470996634865       -2.39195794159215        2.15973457981719
H           -1.00997453704313       -0.95974945595616        1.19174888672986
H            0.10228688246570       -5.94960562875369       -1.23819306992501
H           -1.68958145405676       -7.64290807256611       -1.43523457288276
H           -4.02626056114679       -6.95873520221163       -1.77471888441179
H           -4.61423600290285       -4.54818941986360       -1.92803006524414
H           -3.93920223224772        2.16611977996334       -2.27677809653193
H           -6.01631493461594        3.49952434368029       -2.40565895802850
