108
 energy: -178.036801967286 gnorm: 0.000053084863 xtb: 6.7.1 (edcfbbe)
C           -3.73106753944047        4.92128163660998        0.70382445229361
C           -4.92207021051135        4.25220110103934        0.46871181256397
C           -4.96986570114304        2.87288875743353        0.54479829910806
C           -3.81895253010873        2.14864656929339        0.84202838427083
C           -3.86233061627436        0.68526961071012        0.90180603317399
N           -2.74568204680898        0.02986202863846        0.70123279226033
C           -2.67965419571287       -1.33214371757854        0.70213924618127
C           -1.44751413990897       -1.92695651747528        0.29551663014520
C           -1.03617378008759       -3.21395592334214        0.69821833477884
C            0.22175257763063       -3.68492427696183        0.41947589085769
C            1.13809696988468       -2.88646792977578       -0.27719892248818
N            2.43393456037393       -3.35078981757329       -0.55524688877225
C            2.69543306646350       -4.42862387537283       -1.38562057287185
C            1.81841090954207       -5.36090968547202       -1.91591173789554
C            2.34515353704222       -6.34744140589951       -2.73223689239548
C            3.70586914363074       -6.39873294510647       -3.02176552862704
C            4.58006605776199       -5.45571718474651       -2.51219735222174
C            4.07438246351390       -4.45887240849202       -1.68845642478593
C            4.66300789296612       -3.33443581557250       -1.01631430643675
C            5.96883325990819       -2.85298216623991       -0.98724627608573
C            6.25824891160206       -1.71580051063401       -0.26360190063828
C            5.23651900684068       -1.10831415254532        0.46827640331629
C            3.90863042676850       -1.60058092229045        0.51777652321514
C            3.22063999093189       -0.80772109824038        1.50051734883537
C            1.95710260661155       -0.84609323910790        2.08661703525114
C            1.62965346181216        0.09838850070968        3.03929873385521
C            2.53576031714780        1.08642652299086        3.42338468677122
C            3.80882027126225        1.12562673075470        2.89322047025391
C            4.15411282998488        0.16017035714699        1.95523216536882
N            5.35505020902960       -0.02938387332135        1.31681507405215
C            6.52243281400750        0.72935162953386        1.51671770518323
C            7.16925136595652        1.30846197359183        0.42913333509708
C            8.31806093506143        2.05263799354066        0.62804762510686
C            8.82265951315052        2.22963308143811        1.90625918389502
C            8.17703343542213        1.65513548753672        2.98926314013912
C            7.03190526097263        0.90264864811616        2.79978953714939
C            3.61141205843597       -2.69151673055701       -0.30850338210903
C            0.73545676053817       -1.64045793106834       -0.75774732151408
C           -0.53661924438129       -1.17134474111245       -0.50513516981102
N           -0.96713674783121        0.02375282626163       -1.09830668707963
C           -2.08322797905721        0.13010341982558       -1.90722806917661
C           -2.94963658443759       -0.85889582650000       -2.34985167665450
C           -4.01234862991230       -0.47336924453999       -3.14719017173990
C           -4.20241087248684        0.85718867817073       -3.51214747516383
C           -3.32014829221064        1.84207921257403       -3.10495447017412
C           -2.25088544635373        1.47592423941384       -2.30227446219486
C           -1.16085333163872        2.19907564945288       -1.71389164985290
C           -0.75825612563912        3.52247691954733       -1.67742887220587
O           -1.35898879942564        4.58899173459521       -2.26558686753362
C           -0.61245108805832        5.68010536163797       -1.92244285843294
C           -0.85785781598094        6.99078950171973       -2.28647623529433
C            0.02462299503530        7.95281443159788       -1.82388010757487
C            1.11455047316379        7.61513989674596       -1.02464893796352
C            1.35864024666802        6.30513150313231       -0.66167419312438
C            0.48574951015633        5.32148180442205       -1.11341593365410
C            0.39075315962987        3.89713948472205       -0.94985323028433
C            1.14080536895836        2.94847318341179       -0.24974898374026
C            0.75329774476103        1.62690643888932       -0.26298749951136
C           -0.38386335661491        1.26185500645601       -0.98805660501911
C           -3.87047533305246       -2.01044683041541        1.03381883129999
S           -4.18147645215708       -3.72408809299167        1.14692995082393
C           -5.87963833228910       -3.43312988942087        1.47396809847991
C           -6.84764516662633       -4.39230481809706        1.69643888889363
C           -8.14283059540585       -3.97168123017959        1.94921607951327
C           -8.45833099762061       -2.61261517352197        1.97530342347702
C           -7.49442600709713       -1.65544755113439        1.75297522835846
C           -6.17759170049109       -2.05559260359298        1.49937166168892
C           -5.03212091955980       -1.25291058710621        1.23796693535856
N           -5.02365297779046        0.09751985911454        1.16807030012279
C           -2.62540300027965        2.82596503133415        1.07764351478870
C           -2.58541909379860        4.20569950675268        1.01349575960436
H           -3.69557533104607        5.99952865851237        0.64732513059654
H           -5.81620830222945        4.80874734242164        0.22815534004562
H           -5.89001745229859        2.33623436506281        0.36715588082119
H           -1.70959117090953       -3.82159052681057        1.28118943289231
H            0.52884685463376       -4.65753081392178        0.77306354464680
H            0.76066768114267       -5.31805720153430       -1.70503617812148
H            1.68531311011800       -7.09097905481681       -3.15435416494387
H            4.08000544400400       -7.18472706561398       -3.66093318899807
H            5.63256144473108       -5.49170084711088       -2.74914019051535
H            6.74448835761803       -3.36685064332084       -1.53295103962139
H            7.26047051825113       -1.31847371926370       -0.23153056429741
H            1.24039974493924       -1.60240285792519        1.81568346302747
H            0.64805368121966        0.07444667140009        3.48969749749980
H            2.23907238838474        1.82261193802221        4.15543033142649
H            4.51719782765512        1.88058923248242        3.19814202263180
H            6.76165033094469        1.18059644579218       -0.56275746840749
H            8.81687598317040        2.50122992076064       -0.21820227540279
H            9.71793593735136        2.81344136558744        2.05828979874604
H            8.57037855442216        1.78651916971232        3.98634115008275
H            6.53551687096374        0.43611107817302        3.63769022566478
H            1.41328821950628       -1.05489298962410       -1.36162197752058
H           -2.80525234588436       -1.89418230927250       -2.07865652315945
H           -4.70905149242860       -1.22229233124730       -3.49454941878498
H           -5.04827286063829        1.11819681690293       -4.13046363817344
H           -3.45469322581796        2.87272246652880       -3.39552779454858
H           -1.70470746551962        7.24443897759854       -2.90411964345065
H           -0.13759710700145        8.98672070813519       -2.08844195655162
H            1.77855073786331        8.39565519455031       -0.68436548951645
H            2.20262658436821        6.04500390229303       -0.04173051818252
H            2.01204954887389        3.25649203608427        0.30578767328814
H            1.30222270319513        0.88530975676581        0.29463493382582
H           -6.59530552456735       -5.44159339685350        1.67215691693131
H           -8.91507707251387       -4.70467482149731        2.12626188775270
H           -9.47588010644075       -2.31031165410862        2.17524255278934
H           -7.72450980933868       -0.60117024736762        1.77183890265198
H           -1.73890320957298        2.25753436716778        1.31581732976046
H           -1.65784948435990        4.72564689630709        1.20513497965873
