  59
       -100.77989672
 Br         6.0968393278       -4.1565021689       -1.2173492589
 C          4.7317609958       -2.8691554944       -0.8419221608
 C          3.3993976401       -3.2557933035       -0.9734442230
 C          2.3817993630       -2.3624407318       -0.7075181772
 C          2.7269421970       -1.0798832989       -0.3003772537
 C          4.0832984742       -0.6889350678       -0.1931544712
 C          5.0999870879       -1.5952078673       -0.4628159744
 C          4.0780738597        0.6913356068        0.1971098413
 C          5.0877282135        1.6049827936        0.4681473306
 C          4.7097736213        2.8760154930        0.8475613396
 Br         6.0647679851        4.1732485646        1.2254440640
 C          3.3745261479        3.2528557416        0.9776898746
 C          2.3638285490        2.3522831861        0.7098982928
 C          2.7188042389        1.0724316570        0.3026278525
 N          1.9173790811       -0.0066135738        0.0005394635
 C          0.5121669280       -0.0102174937       -0.0030259453
 C         -0.1845571298        0.9691622681       -0.7069466050
 C         -1.5637331920        0.9680907515       -0.7046399016
 C         -2.2649922181       -0.0137325410       -0.0080629208
 C         -3.7291911265       -0.0123325209       -0.0084944077
 N         -4.3465519306        0.9982644032       -0.6095675361
 C         -5.6773813274        0.9649807092       -0.5819377463
 C         -6.4056970004        2.0560904259       -1.2257875091
 C         -7.7994812282        2.0541313133       -1.2412420133
 C         -8.4852904953        3.0874055483       -1.8492958415
 C         -7.7894500986        4.1281146214       -2.4451010240
 C         -6.4027881161        4.1347262888       -2.4323263219
 C         -5.7108814471        3.1043519943       -1.8264337968
 N         -6.3812651722       -0.0015966680       -0.0016784894
 C         -5.6820513814       -0.9750620361        0.5727585246
 C         -6.4167685046       -2.0598914133        1.2201220057
 C         -5.7293594477       -3.1220283550        1.8047589818
 C         -6.4281380694       -4.1445876663        2.4160932745
 C         -7.8139067407       -4.1168003464        2.4497520630
 C         -8.5023849762       -3.0626374969        1.8692161412
 C         -7.8099103742       -2.0369967747        1.2559508599
 N         -4.3512787852       -1.0194791678        0.5934245102
 C         -1.5639426851       -0.9944489762        0.6901227163
 C         -0.1845893197       -0.9920401863        0.6973603885
 H          3.1676018073       -4.2608619946       -1.2892700751
 H          1.3507797406       -2.6562890329       -0.8259297809
 H          6.1375261451       -1.3130542190       -0.3817074384
 H          6.1274465635        1.3301794418        0.3895557136
 H          3.1349627614        4.2559947914        1.2939709696
 H          1.3305531702        2.6386470946        0.8269944907
 H          0.3625196252        1.7148818180       -1.2647274219
 H         -2.1178836448        1.7177074961       -1.2470364651
 H         -8.3238543736        1.2360881278       -0.7731029937
 H         -9.5653900586        3.0853473549       -1.8604521525
 H         -8.3281729123        4.9353805244       -2.9194579254
 H         -5.8631916761        4.9472132011       -2.8969318310
 H         -4.6322839091        3.0938619444       -1.8061828691
 H         -4.6512990345       -3.1284759385        1.7675505496
 H         -5.8946376446       -4.9679022485        2.8679496494
 H         -8.3579521795       -4.9178706381        2.9285174549
 H         -9.5819134878       -3.0433944360        1.8975145058
 H         -8.3286021374       -1.2084086681        0.8000205655
 H         -2.1180861875       -1.7452224664        1.2309691678
 H          0.3622757545       -1.7359891394        1.2576890675
  59
       -100.77987358
 Br         6.0836523108       -4.0417785641       -1.5772022402
 C          4.7227845012       -2.7891732917       -1.0865932955
 C          3.3892414741       -3.1595080490       -1.2492960869
 C          2.3744732617       -2.2898276074       -0.9056504765
 C          2.7238712418       -1.0479464291       -0.3904895232
 C          4.0813244697       -0.6717906961       -0.2499226598
 C          5.0950883011       -1.5542816891       -0.5979915051
 C          4.0799937151        0.6697707331        0.2577402754
 C          5.0919594322        1.5535217251        0.6077967146
 C          4.7171229081        2.7885485250        1.0940745615
 Br         6.0754478213        4.0437530581        1.5852455627
 C          3.3827929299        3.1577349171        1.2530016035
 C          2.3698025758        2.2866903563        0.9076068613
 C          2.7217921924        1.0447786784        0.3942665767
 N          1.9175872125       -0.0019578578        0.0007507369
 C          0.5121318772       -0.0022254899       -0.0021586017
 C         -0.1832441543        1.0280550465       -0.6303941836
 C         -1.5625435381        1.0268123139       -0.6305315182
 C         -2.2646474582       -0.0028715362       -0.0079227639
 C         -3.7289324123       -0.0028472710       -0.0092343145
 N         -4.3487292229        0.9814478710       -0.6501506508
 C         -5.6795388666        0.9402638449       -0.6295701894
 C         -6.4109303212        1.9923886434       -1.3322104231
 C         -5.7195375917        3.0097866080       -1.9874381600
 C         -6.4147490100        4.0022893106       -2.6501627924
 C         -7.8009510024        3.9884898957       -2.6657849570
 C         -8.4933415010        2.9780972177       -2.0163108780
 C         -7.8044428036        1.9828116364       -1.3511347293
 N         -6.3811964966       -0.0007558143       -0.0060094700
 C         -5.6795922067       -0.9431673691        0.6152304862
 C         -6.4101046293       -1.9925077895        1.3228714151
 C         -5.7180416121       -3.0152318307        1.9688225491
 C         -6.4119854314       -4.0027635252        2.6401902701
 C         -7.7976402527       -3.9787776151        2.6735177984
 C         -8.4907743945       -2.9638719600        2.0320936049
 C         -7.8031101872       -1.9734712846        1.3583044418
 N         -4.3488212204       -0.9866077129        0.6321929943
 C         -1.5645867380       -1.0322016672        0.6175525387
 C         -0.1853079664       -1.0328587323        0.6231383940
 H          3.1544238152       -4.1328703796       -1.6506358322
 H          1.3423601650       -2.5695705694       -1.0465881899
 H          6.1335711933       -1.2828045058       -0.4950606417
 H          6.1309851744        1.2829318206        0.5077979883
 H          3.1458995871        4.1314433986        1.6522030555
 H          1.3370437696        2.5655502250        1.0457358139
 H          0.3649215490        1.8140157483       -1.1287326409
 H         -2.1159167854        1.8151385983       -1.1157532850
 H         -4.6409974735        3.0049092296       -1.9653518458
 H         -5.8779527956        4.7905824813       -3.1573535148
 H         -8.3421945261        4.7656190196       -3.1855398957
 H         -9.5733706061        2.9690376544       -2.0316202782
 H         -8.3262377904        1.1880802512       -0.8416480351
 H         -4.6402486237       -3.0177978624        1.9332925280
 H         -5.8745929094       -4.7948486841        3.1407056264
 H         -8.3379415600       -4.7516106275        3.2005112403
 H         -9.5704921788       -2.9471506880        2.0607378416
 H         -8.3255925615       -1.1748601888        0.8556157317
 H         -2.1195368613       -1.8208942394        1.1004466221
 H          0.3611085367       -1.8190443479        1.1230714446
  59
       -100.77980956
 Br         6.1004618820       -3.9120621370       -1.8513295916
 C          4.7341395960       -2.7042125501       -1.2715517952
 C          3.4021279585       -3.0733819325       -1.4489035118
 C          2.3837184251       -2.2351289544       -1.0434656342
 C          2.7281462946       -1.0263558517       -0.4518797429
 C          4.0839600094       -0.6507207150       -0.2942327810
 C          5.1013207836       -1.5013084689       -0.7054249886
 C          4.0767700063        0.6549363008        0.2997163273
 C          5.0845310588        1.5204771648        0.7034754460
 C          4.7038467197        2.7184833008        1.2710608973
 Br         6.0565597307        3.9467333110        1.8400369305
 C          3.3678585224        3.0683892364        1.4575280104
 C          2.3589910849        2.2153038663        1.0593445038
 C          2.7168995068        1.0114263684        0.4657331353
 N          1.9174182946       -0.0130942258        0.0093128938
 C          0.5117542679       -0.0178904869        0.0078748055
 C         -0.1852310497        1.0452930569       -0.5609963524
 C         -1.5643630090        1.0411988813       -0.5621629148
 C         -2.2644381280       -0.0225233396        0.0029052703
 C         -3.7287596712       -0.0215673917       -0.0010282157
 N         -4.3431579715        0.9360746679       -0.6856464767
 C         -5.6740793052        0.9004720935       -0.6677797794
 C         -6.3975933662        1.9243221775       -1.4185225295
 C         -5.6988736477        2.8545782382       -2.1859131897
 C         -6.3853114024        3.8219614309       -2.8933220175
 C         -7.7699194972        3.8699943365       -2.8413072663
 C         -8.4695358814        2.9461305490       -2.0802657873
 C         -7.7894757918        1.9755550376       -1.3709231892
 N         -6.3807519126       -0.0093706457       -0.0051014662
 C         -5.6840846311       -0.9264070499        0.6584944312
 C         -6.4216432411       -1.9385356715        1.4115894308
 C         -7.8144228643       -1.9678745870        1.3654740590
 C         -8.5096256037       -2.9211131767        2.0836515580
 C         -7.8242601326       -3.8496185018        2.8520471615
 C         -6.4388222711       -3.8249727863        2.9005669291
 C         -5.7372410055       -2.8751111145        2.1841609787
 N         -4.3533643249       -0.9750212032        0.6802197255
 C         -1.5631759593       -1.0837621364        0.5706744297
 C         -0.1835623088       -1.0833468020        0.5741690513
 H          3.1713525662       -4.0205187376       -1.9107486562
 H          1.3524832760       -2.5126624106       -1.1951911549
 H          6.1386655564       -1.2295268201       -0.5916517899
 H          6.1249186518        1.2641999059        0.5819791556
 H          3.1265015776        4.0122074369        1.9207734132
 H          1.3249067652        2.4777798644        1.2182521932
 H          0.3618350430        1.8594916982       -1.0131061188
 H         -2.1192726614        1.8551016343       -1.0013609467
 H         -4.6219022037        2.8003423808       -2.2172602293
 H         -5.8429012544        4.5420237822       -3.4883384732
 H         -8.3042965407        4.6282751601       -3.3947396725
 H         -9.5481293521        2.9867632753       -2.0412833673
 H         -8.3169974547        1.2495195485       -0.7723997990
 H         -8.3307573428       -1.2379010382        0.7620326634
 H         -9.5889563950       -2.9428782551        2.0477156983
 H         -8.3704566231       -4.5932207197        3.4139002334
 H         -5.9076773017       -4.5491937872        3.5006462375
 H         -4.6593844185       -2.8388780298        2.2131145867
 H         -2.1168258778       -1.8992854778        1.0085979411
 H          0.3645087963       -1.8960831389        1.0276687689
  59
       -100.77960768
 Br         6.0603036153       -2.3840271612       -3.6413190839
 C          4.7065745363       -1.6331562362       -2.5162864689
 C          3.3708157140       -1.8446568180       -2.8525979304
 C          2.3613198287       -1.3206515006       -2.0713708479
 C          2.7189151903       -0.5779663518       -0.9533485632
 C          4.0781752868       -0.3844139616       -0.6082928096
 C          5.0864496967       -0.9152421581       -1.4016112677
 C          4.0832470858        0.3780021517        0.6066890327
 C          5.0985885343        0.8844959231        1.4068651991
 C          4.7285297378        1.6090875248        2.5206546858
 Br         6.0914209997        2.3259214405        3.6568888006
 C          3.3959189926        1.8505878536        2.8493717446
 C          2.3794169978        1.3510031332        2.0611688361
 C          2.7266919564        0.6015750784        0.9443001326
 N          1.9181439442        0.0214911481       -0.0071921681
 C          0.5118117102        0.0269693934       -0.0059387524
 C         -0.1836072180        0.4753201834       -1.1258302928
 C         -1.5632897282        0.4781091845       -1.1224858209
 C         -2.2628181870        0.0275014470       -0.0056608134
 C         -3.7274060318        0.0228513103       -0.0054116772
 N         -4.3500522957        0.7082097004       -0.9568158333
 C         -5.6809330443        0.6924542773       -0.9053325306
 C         -6.4168901110        1.4666126712       -1.9023309230
 C         -5.7306888258        2.2578526468       -2.8217595621
 C         -6.4308323786        2.9938299673       -3.7575968380
 C         -7.8162059484        2.9473492224       -3.7841939647
 C         -8.5031379004        2.1613395838       -2.8719287537
 C         -7.8095640034        1.4227329432       -1.9334037689
 N         -6.3782641591        0.0148043594        0.0007437362
 C         -5.6728250439       -0.6619127617        0.9010180254
 C         -6.3980732087       -1.4452869723        1.8986533193
 C         -5.7024365300       -2.2655964103        2.7850602243
 C         -6.3915250103       -3.0125749192        3.7203698026
 C         -7.7750635885       -2.9466763571        3.7804693776
 C         -8.4712440915       -2.1311833223        2.9015654088
 C         -7.7888180628       -1.3827226954        1.9625437475
 N         -4.3418660309       -0.6693938484        0.9463629660
 C         -1.5629822815       -0.4212242126        1.1118930764
 C         -0.1835015984       -0.4188585776        1.1150394000
 H          3.1302903185       -2.4260460152       -3.7287567924
 H          1.3267121122       -1.4947799488       -2.3222701927
 H          6.1264212317       -0.7768851843       -1.1524629428
 H          6.1366325036        0.7215038716        1.1645238919
 H          3.1635172141        2.4367331903        3.7245882906
 H          1.3476005706        1.5492431278        2.3054423591
 H          0.3647315085        0.8333863113       -1.9848072115
 H         -2.1177588395        0.8271083503       -1.9794337460
 H         -4.6528373174        2.2859097804       -2.7829580333
 H         -5.8986030543        3.6082550091       -4.4689396936
 H         -8.3611930227        3.5249393000       -4.5164945897
 H         -9.5823646883        2.1264959404       -2.8957819746
 H         -8.3268771871        0.8057929891       -1.2154663022
 H         -4.6262405737       -2.3073531528        2.7208905887
 H         -5.8520743495       -3.6499745138        4.4055804201
 H         -8.3114241673       -3.5323282055        4.5127384568
 H         -9.5491227030       -2.0823255098        2.9507860028
 H         -8.3134970127       -0.7431507942        1.2703070944
 H         -2.1173989104       -0.7701228614        1.9689262304
 H          0.3648728515       -0.7765619235        1.9741278175
  59
       -100.77938031
 Br         6.0366076496       -2.6141360143       -3.4925335162
 C          4.6900795369       -1.7938836671       -2.4077474459
 C          3.3522056748       -2.0314691971       -2.7177757999
 C          2.3478730032       -1.4603896751       -1.9635144070
 C          2.7130886758       -0.6449571981       -0.8999453359
 C          4.0743923493       -0.4229087531       -0.5809786005
 C          5.0773560890       -1.0020389234       -1.3469167009
 C          4.0860219247        0.4194065192        0.5800693351
 C          5.1046947442        0.9872806945        1.3335382159
 C          4.7393046019        1.7842437367        2.3983162317
 Br         6.1083239211        2.5896035488        3.4660213672
 C          3.4081042197        2.0368509926        2.7245825844
 C          2.3881884135        1.4768989503        1.9828932787
 C          2.7311577461        0.6573833391        0.9150915924
 N          1.9177807385        0.0109200332        0.0122768931
 C          0.5110841273        0.0184978789        0.0172560033
 C         -0.1840775335        0.4140266152       -1.1223676937
 C         -1.5636435626        0.4207559042       -1.1174394083
 C         -2.2620966317        0.0214087033        0.0192159453
 C         -3.7268700674        0.0172256799        0.0164012812
 N         -4.3442722887        0.7231921090       -0.9228752878
 C         -5.6753194270        0.7123399678       -0.8740118843
 C         -6.4041784037        1.5207272308       -1.8485840314
 C         -5.7092853052        2.3321700181       -2.7437734114
 C         -6.4012401887        3.1024670658       -3.6578886380
 C         -7.7869159593        3.0703820270       -3.6865703102
 C         -8.4824856444        2.2643383977       -2.7983171189
 C         -7.7971477859        1.4913266601       -1.8817473282
 N         -6.3768402156        0.0092851705        0.0091194643
 C         -5.6758284359       -0.6927841441        0.8933091114
 C         -6.4054470946       -1.5144019844        1.8562286118
 C         -5.7126517298       -2.3603011591        2.7206437858
 C         -6.4059702192       -3.1480872119        3.6186186174
 C         -7.7907905038       -3.0979185981        3.6630624114
 C         -8.4840608528       -2.2566263542        2.8064467885
 C         -7.7974249356       -1.4671563887        1.9047896709
 N         -4.3449190571       -0.6953182566        0.9502049094
 C         -1.5629396353       -0.3763493812        1.1559319479
 C         -0.1830968051       -0.3723326655        1.1590070961
 H          3.1062643945       -2.6703793333       -3.5514054825
 H          1.3114340814       -1.6539847525       -2.1914650134
 H          6.1192006268       -0.8432558750       -1.1184717505
 H          6.1417930184        0.8170820573        1.0921311841
 H          3.1797643010        2.6792229157        3.5606173812
 H          1.3568557284        1.6821539442        2.2234335100
 H          0.3646766646        0.7277833424       -1.9982333024
 H         -2.1185711492        0.7309839364       -1.9889543087
 H         -4.6312568275        2.3480465060       -2.7034489766
 H         -5.8622384629        3.7318209227       -4.3508994345
 H         -8.3256149046        3.6748212634       -4.4016613730
 H         -9.5620653488        2.2417725652       -2.8233387741
 H         -8.3210323421        0.8569760506       -1.1840432072
 H         -4.6353608157       -2.3899353702        2.6680315662
 H         -5.8689089804       -3.8060954216        4.2859901588
 H         -8.3304662915       -3.7163086950        4.3653931855
 H         -9.5629144490       -2.2197130223        2.8436991283
 H         -8.3197524371       -0.8068801985        1.2304261961
 H         -2.1170934831       -0.6853015535        2.0284394298
 H          0.3660778414       -0.6867439223        2.0343624973
  59
       -100.77929845
 Br         6.0659322277       -3.5177183937       -2.5607952395
 C          4.7104761467       -2.4317329133       -1.7570924585
 C          3.3752476966       -2.7561676456       -1.9900939899
 C          2.3644094536       -2.0016174929       -1.4307944316
 C          2.7205776248       -0.9223918674       -0.6321935679
 C          4.0792762306       -0.5895722594       -0.4143121231
 C          5.0887851330       -1.3561420157       -0.9809578710
 C          4.0815441022        0.5846334732        0.4096012698
 C          5.0943056495        1.3551296196        0.9650061979
 C          4.7204491567        2.4303429124        1.7438341464
 Br         6.0804383765        3.5223127276        2.5316665664
 C          3.3866389426        2.7505450599        1.9903527841
 C          2.3725964912        1.9919896350        1.4424045086
 C          2.7240389573        0.9131842271        0.6411225370
 N          1.9180492793       -0.0060778047        0.0088288056
 C          0.5110408509       -0.0058702921        0.0111953876
 C         -0.1836872399        1.1254855016       -0.4078273104
 C         -1.5634035331        1.1208912679       -0.4139003252
 C         -2.2620824467       -0.0063237149        0.0108976991
 C         -3.7269884621       -0.0052769119        0.0089378041
 N         -4.3414358671        0.8996852310       -0.7428258179
 C         -5.6725530711        0.8515800050       -0.7340253090
 C         -6.3985164910        1.7803823226       -1.5970091953
 C         -5.7028072293        2.5977663678       -2.4860966871
 C         -6.3925492864        3.4647246623       -3.3109312323
 C         -7.7765545254        3.5247077384       -3.2550456796
 C         -8.4726417570        2.7145353538       -2.3711736771
 C         -7.7896742262        1.8439063292       -1.5445750859
 N         -6.3765947415        0.0066126462        0.0118132012
 C         -5.6784306017       -0.8482124495        0.7521261806
 C         -6.4119535069       -1.7743142938        1.6116758684
 C         -5.7218233142       -2.6383659490        2.4600234709
 C         -6.4191986293       -3.5038315476        3.2800648672
 C         -7.8054342397       -3.5147833124        3.2611716174
 C         -8.4961477098       -2.6573646987        2.4186176973
 C         -7.8054428131       -1.7893864705        1.5957698926
 N         -4.3475706793       -0.9082027841        0.7580536315
 C         -1.5633372442       -1.1329484140        0.4368008196
 C         -0.1834889925       -1.1370381598        0.4309978901
 H          3.1364495392       -3.6015660610       -2.6160995468
 H          1.3299906688       -2.2415374784       -1.6207177196
 H          6.1285492900       -1.1163541439       -0.8252537316
 H          6.1331872859        1.1189158147        0.7984161371
 H          3.1515125283        3.5956881071        2.6181373688
 H          1.3393831570        2.2288033549        1.6426549625
 H          0.3652208500        1.9941022578       -0.7409484556
 H         -2.1179572627        1.9851711638       -0.7445953855
 H         -4.6262601623        2.5337267025       -2.5190121806
 H         -5.8532717381        4.0959940901       -4.0018991668
 H         -8.3133790684        4.2029950656       -3.9020536989
 H         -9.5508322752        2.7640828282       -2.3297939606
 H         -8.3141840614        1.2057285785       -0.8508950905
 H         -4.6432047276       -2.6122186787        2.4648428439
 H         -5.8840730060       -4.1722483474        3.9385649442
 H         -8.3482246811       -4.1914712407        3.9048933078
 H         -9.5762102111       -2.6680457200        2.4065380283
 H         -8.3256689672       -1.1155830632        0.9332219685
 H         -2.1175354093       -1.9974162791        0.7675819790
 H          0.3656323690       -2.0054231156        0.7643723427
  59
       -100.77899825
 Br         6.0605953317       -2.8974785352       -3.2480863663
 C          4.7065776782       -1.9896980090       -2.2453294267
 C          3.3709280114       -2.2536386945       -2.5433136623
 C          2.3611966910       -1.6226184847       -1.8459220303
 C          2.7193774126       -0.7222043049       -0.8508406137
 C          4.0784722826       -0.4711782240       -0.5439133635
 C          5.0867172733       -1.1105520863       -1.2528789093
 C          4.0817355387        0.4654628082        0.5425604106
 C          5.0944765278        1.0974709248        1.2518288582
 C          4.7204572061        1.9788292138        2.2446264796
 Br         6.0806293372        2.8767765289        3.2478339867
 C          3.3866929092        2.2518747765        2.5428224433
 C          2.3725950799        1.6282150505        1.8452617367
 C          2.7244144791        0.7259443214        0.8496492508
 N          1.9180627422        0.0047768472       -0.0006147029
 C          0.5104209820        0.0078962560        0.0005066025
 C         -0.1837797186        0.3410678450       -1.1590443708
 C         -1.5637708864        0.3506769121       -1.1539810821
 C         -2.2615001894        0.0107249641        0.0018360059
 C         -3.7267770895        0.0100768981        0.0018769384
 N         -4.3442456760        0.7457944954       -0.9136595561
 C         -5.6752813651        0.7423096936       -0.8556804220
 C         -6.4052879072        1.6003608605       -1.7857931974
 C         -5.7114240230        2.4625201636       -2.6331958165
 C         -6.4047696690        3.2843245813       -3.5001868369
 C         -7.7905218304        3.2526989381       -3.5299177213
 C         -8.4848707481        2.3956385199       -2.6899123121
 C         -7.7982697952        1.5716266121       -1.8197089271
 N         -6.3754312696        0.0057446688        0.0005517845
 C         -5.6737320498       -0.7282249164        0.8578975363
 C         -6.4012951165       -1.5897516076        1.7866129487
 C         -5.7047106629       -2.4466684781        2.6370232380
 C         -6.3956629804       -3.2725353411        3.5020154880
 C         -7.7817273353       -3.2506766810        3.5261675747
 C         -8.4787250489       -2.3987673256        2.6831204780
 C         -7.7945617441       -1.5702834094        1.8152490686
 N         -4.3427128281       -0.7270963803        0.9173954956
 C         -1.5633479592       -0.3295330119        1.1572597868
 C         -0.1833825072       -0.3226251894        1.1610641170
 H          3.1311103898       -2.9593934054       -3.3231014216
 H          1.3261608594       -1.8333830423       -2.0649450996
 H          6.1268714087       -0.9318949660       -1.0317050051
 H          6.1334161531        0.9110433854        1.0311368115
 H          3.1518117220        2.9591444481        3.3228007874
 H          1.3390025503        1.8459305508        2.0646049139
 H          0.3656187766        0.6044377374       -2.0509875063
 H         -2.1182404914        0.6169814297       -2.0403648257
 H         -4.6332853565        2.4772104427       -2.5919004724
 H         -5.8669139348        3.9546659626       -4.1544781244
 H         -8.3301400520        3.8980698550       -4.2076109185
 H         -9.5644072722        2.3738821314       -2.7151419673
 H         -8.3213028381        0.8990246878       -1.1582060177
 H         -4.6263981366       -2.4541240521        2.5996740217
 H         -5.8556982901       -3.9381626442        4.1593137746
 H         -8.3194643561       -3.8985371129        4.2029993056
 H         -9.5585430468       -2.3834439518        2.7052053519
 H         -8.3196906478       -0.9014482656        1.1516942534
 H         -2.1175671675       -0.5947360083        2.0441780790
 H          0.3663476900       -0.5870599821        2.0524884733
