  68
       -108.71485543
 C          5.1999521712        4.9838302371       -0.2102292460
 O          3.8352638873        5.0024978881       -0.5422508484
 C          3.0678626747        3.9268145716       -0.1866825888
 C          1.7179569116        4.0179328376       -0.5589738595
 C          0.8180770425        3.0147534646       -0.2741763703
 C          1.2824168384        1.8974290107        0.4044911124
 C          2.6373701089        1.7898044062        0.7762550226
 C          3.5368385845        2.8086665612        0.4824282598
 C          2.7871344243        0.5145036723        1.4184557859
 C          3.8619496455       -0.1542832312        1.9882630420
 C          3.6463584799       -1.3969483778        2.5496048234
 C          2.3726052546       -1.9594042650        2.5815941412
 C          1.2872912532       -1.3113830613        2.0256951390
 C          1.5107115441       -0.0909725975        1.4065521380
 N          0.6082714442        0.7467572285        0.7820073821
 C         -0.6630306507        0.3748284727        0.3264958095
 C         -1.7610794361        1.1705184116        0.6146387887
 C         -3.0320158955        0.8201366315        0.1739059246
 C         -3.2234549060       -0.3446035624       -0.5668220881
 C         -2.1222287744       -1.1336967803       -0.8557638996
 C         -0.8437098377       -0.7935036999       -0.4353701293
 N          0.2455029778       -1.6123887093       -0.7688878615
 C          1.4385205935       -1.1725705099       -1.3097339968
 C          1.7288109054        0.0376629250       -1.9203350386
 C          3.0171294517        0.2338578905       -2.3779105932
 C          3.9872319234       -0.7580538174       -2.2588850409
 C          3.6850906867       -1.9873636757       -1.7073656770
 C          2.3983443406       -2.2056771578       -1.2353504870
 C          1.7391680548       -3.3303739341       -0.6327140699
 C          2.1510712207       -4.6121897779       -0.2954781078
 C          1.2443679906       -5.4632234497        0.3046827461
 C         -0.0563137341       -5.0475492419        0.5783151659
 C         -0.4892881272       -3.7759226721        0.2539559117
 C          0.4136106930       -2.9224203253       -0.3616248534
 C         -4.5888694956       -0.7144303919       -1.0743120006
 C         -5.6635476942        0.1417380655       -0.4626524831
 C         -7.0045328852       -0.1693147140       -0.6381771338
 C         -8.0005252984        0.6307021345       -0.1094279067
 C         -7.6615202963        1.7647332321        0.6104898022
 C         -6.3332586454        2.0863928951        0.8054948970
 C         -5.3350341784        1.2769352410        0.2724712694
 O         -4.0452349527        1.6621847523        0.5212186519
 H          5.6075853896        5.9232082494       -0.5810617738
 H          5.3504698070        4.9275280193        0.8731805798
 H          5.7203122607        4.1489313532       -0.6917370018
 H          1.4038530789        4.9060076876       -1.0839170217
 H         -0.2128730129        3.0976126560       -0.5831147452
 H          4.5694591760        2.7040746128        0.7727300566
 H          4.8447106944        0.2926257027        1.9923968862
 H          4.4718391696       -1.9374418925        2.9883433433
 H          2.2280701811       -2.9209620646        3.0511889837
 H          0.2982973840       -1.7411203542        2.0760516013
 H         -1.6419581947        2.0639007498        1.2068507283
 H         -2.2532575268       -2.0265438227       -1.4497038806
 H          0.9756934439        0.8017673554       -2.0387602438
 H          3.2733565028        1.1765043611       -2.8381592793
 H          4.9861285809       -0.5646231432       -2.6210083526
 H          4.4304598665       -2.7655918457       -1.6428954853
 H          3.1625046886       -4.9311379926       -0.4967927192
 H          1.5447773332       -6.4651577510        0.5733755948
 H         -0.7406855160       -5.7325415762        1.0572245400
 H         -1.4949582837       -3.4558940491        0.4843476358
 H         -4.7914324672       -1.7711414764       -0.8708612423
 H         -4.6112654512       -0.5952173659       -2.1657032706
 H         -7.2635710825       -1.0522412133       -1.2048682860
 H         -9.0372726290        0.3719915928       -0.2604133825
 H         -8.4320405549        2.3971448559        1.0241309883
 H         -6.0418773340        2.9595435648        1.3676033574
