  53
  -88.8372057133000       0.353125969783219      !
 C         -7.4002852558        2.8142918377       -0.3244003256
 C         -8.0058657731        1.5580966083       -0.3292525301
 C         -7.2592671443        0.3922272617       -0.2362832834
 C         -5.8914301398        0.5282262817       -0.1406289339
 C         -5.2568194742        1.8086850243       -0.1330990529
 C         -6.0324067680        2.9627981220       -0.2270368189
 N         -3.9003167864        1.6861001314       -0.0269973057
 C         -3.6924513850        0.3860032321        0.0240326588
 N         -2.6073852713       -0.4406003708        0.1207146767
 C         -1.2983737258       -0.0418390416        0.1847745396
 C         -0.9370512199        1.3289998447        0.0498598524
 C          0.3756953556        1.6658252875        0.0396328567
 C          1.4028373423        0.6602458238        0.1723020841
 C          2.7838556621        0.9479889721        0.1887410739
 C          3.2626536778        2.2888198296        0.3661481914
 C          4.5899936539        2.6154096251        0.3603338029
 C          5.5158739575        1.5877286264        0.1711089813
 O          6.8675404209        1.7014427781        0.1261380383
 C          7.3526217670        0.4454926580       -0.0776220873
 C          8.6841014113        0.0884252281       -0.1922288739
 C          8.9654972572       -1.2519252096       -0.3989197602
 C          7.9530271103       -2.2012268466       -0.4874528798
 C          6.6209177858       -1.8412922398       -0.3728494145
 C          6.3153638503       -0.5058163417       -0.1661530867
 C          5.0930674424        0.2452725651       -0.0013392558
 C          3.7604411203       -0.0802506795        0.0120457934
 C          0.8928802660       -0.6721355643        0.3577815799
 N         -0.3577454566       -0.9976870832        0.3736838985
 C         -3.1037830529       -1.7464918416        0.1174223152
 C         -2.4494147436       -2.9651852654        0.1893210514
 C         -3.2207943007       -4.1140212968        0.1743749370
 C         -4.6112272936       -4.0606626390        0.0833084308
 C         -5.2809376173       -2.8520486560        0.0058907370
 C         -4.5201124650       -1.6977952755        0.0221310866
 N         -4.8516414157       -0.3680596503       -0.0364611470
 H         -8.0237189177        3.6929065237       -0.3995359092
 H         -9.0802688129        1.4896450579       -0.4077648326
 H         -7.7330811975       -0.5771676967       -0.2400932583
 H         -5.5634189374        3.9330281710       -0.2227567533
 H         -1.7205773573        2.0560260437       -0.0906962453
 H          0.6548086450        2.6941519520       -0.1228873812
 H          2.5446049787        3.0742149135        0.5355097080
 H          4.9234444368        3.6314453806        0.5007037702
 H          9.4642000016        0.8293035700       -0.1224177367
 H          9.9942081089       -1.5654088744       -0.4931317008
 H          8.2131099032       -3.2366259644       -0.6486232601
 H          5.8369919026       -2.5796935894       -0.4429413673
 H          3.4591988496       -1.1026111960       -0.1438935034
 H          1.5701988117       -1.4835213361        0.5851325658
 H         -1.3754938477       -2.9988053763        0.2568818816
 H         -2.7340467093       -5.0751450063        0.2305270690
 H         -5.1770334852       -4.9795212927        0.0697434510
 H         -6.3559074960       -2.8081131056       -0.0654646049
  53
  -88.8371872808000       0.346304924546545      !
 C         -7.4298746153        2.7916261204       -0.3858759487
 C         -8.0283700124        1.5447173303       -0.2056172531
 C         -7.2712367348        0.3912396553       -0.0572717060
 C         -5.9011024987        0.5305845137       -0.0953513201
 C         -5.2726985454        1.8019736926       -0.2757182358
 C         -6.0595450516        2.9436133646       -0.4233738840
 N         -3.9124341474        1.6838409579       -0.2779982306
 C         -3.6953986159        0.3939776532       -0.1113203376
 N         -2.6036421169       -0.4253749286       -0.0310969368
 C         -1.2932021926       -0.0310249820       -0.0780169413
 C         -0.9314610787        1.3464945655       -0.0813095948
 C          0.3822769256        1.6795078642       -0.0371332299
 C          1.4025436675        0.6588645141       -0.0250314210
 C          2.7807999271        0.9302394217        0.1093060415
 C          3.2385193177        2.1853480816        0.6306466904
 C          4.5597139074        2.4678297197        0.8410918690
 C          5.4997551946        1.4916441435        0.5041637078
 O          6.8489569364        1.5742348624        0.6301855025
 C          7.3521305708        0.3991694686        0.1604394815
 C          8.6873624065        0.0423866073        0.1000322179
 C          8.9877314941       -1.2034100141       -0.4258609973
 C          7.9903385921       -2.0619700006       -0.8756688624
 C          6.6541002070       -1.7054443848       -0.8082515633
 C          6.3298746195       -0.4650469038       -0.2832035910
 C          5.0975218617        0.2493514613       -0.0482602178
 C          3.7700962024       -0.0399920425       -0.2375900485
 C          0.8954521926       -0.6831078549       -0.1231072887
 N         -0.3548149392       -1.0110566673       -0.1213487769
 C         -3.0951712302       -1.7226911623        0.1413382106
 C         -2.4339837523       -2.9304755018        0.2935147839
 C         -3.2005689720       -4.0682104007        0.4749412896
 C         -4.5936856759       -4.0150246869        0.5039905852
 C         -5.2707930837       -2.8178034736        0.3511230579
 C         -4.5143026414       -1.6745591331        0.1705370867
 N         -4.8531700375       -0.3556377074        0.0075794871
 H         -8.0619198044        3.6599105569       -0.4991593745
 H         -9.1052166456        1.4739796243       -0.1810633408
 H         -7.7388678453       -0.5713450330        0.0805863110
 H         -5.5966791974        3.9066586013       -0.5632855497
 H         -1.7140891570        2.0867062947       -0.1212215007
 H          0.6710275064        2.7182402592       -0.0591118276
 H          2.5040840008        2.9213402183        0.9148830376
 H          4.8771987685        3.4100475616        1.2591017927
 H          9.4565671801        0.7129110829        0.4480485734
 H         10.0200457952       -1.5129610680       -0.4891492066
 H          8.2652201024       -3.0235682286       -1.2824193241
 H          5.8813381167       -2.3741110699       -1.1554547544
 H          3.4858650056       -0.9786528504       -0.6830096179
 H          1.5781280244       -1.5210794199       -0.1504259602
 H         -1.3584226772       -2.9631833403        0.2698998227
 H         -2.7078088158       -5.0198319130        0.5991543710
 H         -5.1557357358       -4.9248193310        0.6489494348
 H         -6.3478578597       -2.7740670940        0.3739398358
  53
  -88.8369479559000       0.268826797607144      !
 C         -7.3564977002        2.7982489291       -0.5948546759
 C         -7.9569643482        1.5399228270       -0.6294297935
 C         -7.2166346307        0.3778266079       -0.4660373389
 C         -5.8601567254        0.5197669099       -0.2695537521
 C         -5.2309214429        1.8022907511       -0.2315123753
 C         -6.0001645396        2.9526559701       -0.3973605479
 N         -3.8854244712        1.6855402069       -0.0265206796
 C         -3.6782931825        0.3866017577        0.0537618052
 N         -2.5998146358       -0.4353882512        0.2305896935
 C         -1.2970642308       -0.0326982925        0.3614207006
 C         -0.9370948457        1.3431634618        0.2741569985
 C          0.3748972686        1.6825622253        0.2969232350
 C          1.3998499969        0.6719400945        0.3996786837
 C          2.7822854067        0.9518143580        0.3792555705
 C          3.2795755239        2.2796839829        0.5944757125
 C          4.6077351029        2.5978973951        0.5307311756
 C          5.5118347519        1.5758109755        0.2355058284
 O          6.8586312471        1.6857282137        0.1059688952
 C          7.3192898848        0.4402598678       -0.1956476340
 C          8.6363045270        0.0850811117       -0.4257349941
 C          8.8917397325       -1.2429564517       -0.7253792139
 C          7.8685205118       -2.1824076560       -0.7920071177
 C          6.5509886220       -1.8245748726       -0.5610246172
 C          6.2716322404       -0.5014313971       -0.2602406498
 C          5.0691861350        0.2448500908        0.0257562916
 C          3.7375728719       -0.0743819341        0.1061562822
 C          0.8896900711       -0.6613009106        0.5756793608
 N         -0.3604822711       -0.9882791406        0.5696915060
 C         -3.0919305211       -1.7429665200        0.2084592849
 C         -2.4415687602       -2.9587948851        0.3407891720
 C         -3.2079581631       -4.1098882573        0.2903931124
 C         -4.5892323325       -4.0617592872        0.1049368618
 C         -5.2545091541       -2.8562796574       -0.0343610473
 C         -4.4987532648       -1.6997166189        0.0174107960
 N         -4.8285569142       -0.3718165537       -0.0793017830
 H         -7.9748741066        3.6735202791       -0.7280257772
 H         -9.0222054466        1.4671486297       -0.7879861899
 H         -7.6861536167       -0.5932758831       -0.4938202740
 H         -5.5346497413        3.9242458935       -0.3717542417
 H         -1.7200147092        2.0722842219        0.1423592517
 H          0.6568917479        2.7160991282        0.1787710003
 H          2.5767925387        3.0583678849        0.8424448191
 H          4.9578075621        3.6033906712        0.7027296835
 H          9.4251888616        0.8180525122       -0.3735903320
 H          9.9084531211       -1.5541153311       -0.9123488387
 H          8.1081546580       -3.2079570065       -1.0295223131
 H          5.7581503217       -2.5547447654       -0.6148953396
 H          3.4158275031       -1.0853733047       -0.0811187019
 H          1.5665566051       -1.4689332993        0.8190174563
 H         -1.3744054893       -2.9882598745        0.4798741981
 H         -2.7244211754       -5.0688910241        0.3925945266
 H         -5.1509925134       -4.9824014928        0.0666249174
 H         -6.3223555302       -2.8166606623       -0.1781209446
  53
  -88.8349290301000       3.174230806309260E-002 !
 C         -6.9920999320        2.8261626907        1.3318853295
 C         -7.6143802736        1.5818671451        1.4311195672
 C         -6.9643372511        0.4132476086        1.0603820358
 C         -5.6735454127        0.5335766773        0.5935443246
 C         -5.0220564904        1.8015186199        0.4889190493
 C         -5.7020320085        2.9594695728        0.8627409655
 N         -3.7456114805        1.6633106670        0.0237251161
 C         -3.5984764878        0.3649018993       -0.1459267377
 N         -2.5872624558       -0.4749788135       -0.5226485960
 C         -1.3000303641       -0.0983431625       -0.8014189276
 C         -0.9399597938        1.2772131888       -0.9045298580
 C          0.3709483820        1.6063715716       -1.0058098143
 C          1.3861791074        0.5826404669       -0.9558616742
 C          2.7660582444        0.8584323007       -0.8603197689
 C          3.3078195911        2.1270016025       -1.2486980387
 C          4.6235489102        2.4562744103       -1.0742098871
 C          5.4576235611        1.5140518778       -0.4692030457
 O          6.7690633169        1.6663638372       -0.1529927973
 C          7.1542654593        0.5127072063        0.4596030138
 C          8.4056263790        0.2379251953        0.9814363360
 C          8.5818323079       -0.9933487592        1.5913009395
 C          7.5465694811       -1.9181857088        1.6737644003
 C          6.2960833314       -1.6428904733        1.1464824671
 C          6.0961853977       -0.4163578817        0.5340486414
 C          4.9679378195        0.2397237684       -0.0826468282
 C          3.6574687415       -0.1033610135       -0.2976595599
 C          0.8732190849       -0.7598438948       -1.0042780588
 N         -0.3777412309       -1.0802389796       -0.9539101111
 C         -3.1053140784       -1.7710460263       -0.4570355007
 C         -2.5262523871       -2.9939315274       -0.7536340660
 C         -3.3076556578       -4.1277769928       -0.6175111482
 C         -4.6330153051       -4.0559120029       -0.1892018721
 C         -5.2268596112       -2.8428331747        0.1123568599
 C         -4.4570050144       -1.7027239339       -0.0257974821
 N         -4.7283325546       -0.3716551201        0.1657976143
 H         -7.5385274794        3.7068755158        1.6352672220
 H         -8.6245128236        1.5251867399        1.8074657707
 H         -7.4497714099       -0.5469304381        1.1420349685
 H         -5.2178323618        3.9193451947        0.7892702961
 H         -1.7183488332        2.0204353807       -0.8533096266
 H          0.6623173020        2.6431118454       -1.0511159826
 H          2.6538419244        2.8392806522       -1.7256320865
 H          5.0143617174        3.4129724057       -1.3828090651
 H          9.2030126807        0.9607336162        0.9189069232
 H          9.5443665071       -1.2378453801        2.0147771509
 H          7.7226425855       -2.8658562642        2.1601837905
 H          5.4926573734       -2.3602658039        1.2143233458
 H          3.2882111307       -1.0644868845        0.0208822427
 H          1.5520332624       -1.5852341392       -1.1748056261
 H         -1.5002547667       -3.0419243412       -1.0761543820
 H         -2.8806073741       -5.0919058504       -0.8455505614
 H         -5.2078217883       -4.9639589668       -0.0908436636
 H         -6.2525183137       -2.7847822722        0.4398760514
