  78
       -110.59829374
 C          1.7958574904        1.6125815131       -4.0229232230
 C          1.4695678054        0.3170181666       -3.6597293526
 C          1.8049962567       -0.1524071316       -2.4036058802
 C          2.4628641683        0.6591074872       -1.4825151578
 Si         2.8166433858        0.0192832066        0.2675732998
 C          3.3253160526       -1.8020837965        0.1583773132
 C          4.2325623655       -2.2256724007       -0.8088661444
 C          4.6151007471       -3.5516899819       -0.8972703948
 C          4.0913431315       -4.4831737002       -0.0161326922
 C          3.1837040590       -4.0802571245        0.9488182291
 C          2.8068397538       -2.7518256913        1.0327798405
 C          4.1712831147        1.0495237925        1.0967574485
 C          3.8831662689        2.3221953502        1.5829970103
 C          4.8609656563        3.0982301313        2.1775983514
 C          6.1519773575        2.6114684778        2.2982138137
 C          6.4550577280        1.3463077258        1.8245327077
 C          5.4720026489        0.5754055274        1.2302583291
 C          1.2110042786        0.1763406511        1.2605241055
 C          1.1913488198        0.3859190150        2.6361409976
 C         -0.0094372371        0.5111635823        3.3128301499
 C         -1.2086299696        0.4288080634        2.6258846704
 C         -1.2236664473        0.2117791457        1.2525471050
 Si        -2.8139108104        0.0616551815        0.2348569147
 C         -3.2877372310       -1.7685753332        0.0968246483
 C         -2.3124181702       -2.7603807763        0.1422002018
 C         -2.6473385039       -4.0965033485        0.0176519798
 C         -3.9709039631       -4.4657768856       -0.1550329069
 C         -4.9544653820       -3.4920105159       -0.2024528247
 C         -4.6126316245       -2.1574816515       -0.0783189551
 C         -2.4254695213        0.7438761133       -1.4904377961
 C         -1.6766117992        1.9089950410       -1.6345756920
 C         -1.3592577784        2.4053301084       -2.8848419599
 C         -1.7881562285        1.7406952795       -4.0213833971
 C         -2.5321476125        0.5799942089       -3.8977096327
 C         -2.8456099543        0.0887167193       -2.6428580225
 C         -4.2267123165        1.0218268045        1.0511366645
 C         -4.6351020689        2.2622764500        0.5718300952
 C         -5.6549808579        2.9647837659        1.1883266086
 C         -6.2864496970        2.4361433272        2.3014841053
 C         -5.8947512251        1.2009145630        2.7906257679
 C         -4.8755493644        0.5034394323        2.1686934330
 C         -0.0050847389        0.0870217978        0.5969956827
 C          2.7843899062        1.9565935651       -1.8659736928
 C          2.4586599496        2.4305349827       -3.1241970757
 H          1.5379291519        1.9819200248       -5.0048590451
 H          0.9516800917       -0.3264419145       -4.3564128691
 H          1.5593674770       -1.1698616482       -2.1314526546
 H          4.6376086693       -1.5035466054       -1.5043670855
 H          5.3213152011       -3.8614176010       -1.6546296493
 H          4.3880468403       -5.5199946600       -0.0832557792
 H          2.7694591261       -4.8038055149        1.6366344085
 H          2.0964181736       -2.4425018584        1.7867688375
 H          2.8747537668        2.7032437384        1.4983778983
 H          4.6177661089        4.0838643975        2.5482874914
 H          6.9182153316        3.2150175809        2.7628634776
 H          7.4602910714        0.9608703823        1.9198377537
 H          5.7139445078       -0.4128337378        0.8655857384
 H          2.1250263984        0.4583896632        3.1766870092
 H         -0.0106825356        0.6788658635        4.3810279768
 H         -2.1426923898        0.5408989388        3.1580481807
 H         -1.2779324805       -2.4782819860        0.2794823315
 H         -1.8757023956       -4.8523385806        0.0553513959
 H         -4.2353037385       -5.5090199033       -0.2515284135
 H         -5.9890379643       -3.7748588979       -0.3359622781
 H         -5.3843495099       -1.4010672719       -0.1136085779
 H         -1.3311591042        2.4276878429       -0.7509951900
 H         -0.7726425330        3.3083474342       -2.9743913610
 H         -1.5419407851        2.1259426837       -5.0002131290
 H         -2.8676054938        0.0558335010       -4.7816467700
 H         -3.4212563802       -0.8218297653       -2.5523590267
 H         -4.1480473715        2.6781205791       -0.2989745220
 H         -5.9605578922        3.9259701992        0.8001930965
 H         -7.0826182217        2.9835078866        2.7852536729
 H         -6.3857718129        0.7825973781        3.6578854696
 H         -4.5790723651       -0.4640216415        2.5495212511
 H         -0.0049498593       -0.0687223955       -0.4724239216
 H          3.3026464968        2.6008416590       -1.1697688969
 H          2.7215347213        3.4408543508       -3.4048225825
