78
 energy: -110.480282672686 gnorm: 0.000143391514 xtb: 6.7.1 (edcfbbe)
C            1.70111620075891       -3.62090035611780       -2.41765425118594
C            2.88797953322421       -3.58971260030667       -1.70242148549826
C            3.20331024146717       -2.49073895756117       -0.92651905368261
C            2.34372940273669       -1.39470533656311       -0.84669281938653
Si           2.65704864844075        0.08080783458131        0.28589823584425
C            4.33195967509724       -0.04463859201033        1.15597122814247
C            5.28763490423782        0.95350906234258        1.00392868769749
C            6.52139279613487        0.85544467871753        1.62205423956538
C            6.81930881739568       -0.24712730450008        2.40486535599193
C            5.87697241109413       -1.24949603380845        2.56604496372789
C            4.64456516946546       -1.14483939479706        1.94739200415154
C            2.44717705629142        1.68939863043335       -0.69138663747125
C            2.32465174561196        2.90743213250809       -0.02755861057701
C            2.13700124091014        4.08578663658578       -0.72573764720736
C            2.07223271990560        4.06816856481209       -2.10895516073040
C            2.20014662360552        2.86669259137078       -2.78479071464695
C            2.38592121976165        1.69118103562361       -2.08056767450789
C            1.34891432368662        0.24112103072462        1.67487782141717
C            1.39009813858906       -0.63811083895846        2.81871567729694
C            0.34247744868701       -1.49282068429193        3.01012271232094
C           -0.83089722547266       -1.35246888540219        2.25542030236787
C           -0.96941760921879       -0.28086992655547        1.32687053893306
Si          -2.55140463110038       -0.03705432668196        0.31414237588433
C           -2.07389148624488        1.02919838986502       -1.17795209107571
C           -1.87542740871796        2.40008067668900       -1.03243690569573
C           -1.41741352624806        3.17163745477413       -2.08426915145609
C           -1.15056012192520        2.58304868989889       -3.30885783267459
C           -1.35549708603637        1.22433907096660       -3.47655269021726
C           -1.81290318175334        0.45822549832521       -2.41930775065502
C           -3.91251132022847        0.82840154385618        1.30839874110730
C           -3.95924483425281        0.74822650209524        2.69677866451972
C           -4.96882786129309        1.36569919738169        3.41274228937697
C           -5.95365586308181        2.07797063794331        2.74900679920268
C           -5.91924472839770        2.17263299963032        1.36767842807499
C           -4.90670428647161        1.55411211868366        0.65740596426770
C           -3.13425894478642       -1.74378310324848       -0.26700649072187
C           -4.48126841926737       -2.00921628427270       -0.49298172640215
C           -4.89652989352954       -3.24734294231065       -0.94939802894379
C           -3.96647400254023       -4.24468492927153       -1.19085303788341
C           -2.62206475528738       -3.99806485525399       -0.96728983556023
C           -2.21314028522698       -2.75951242081148       -0.50745980965708
C            0.06757963125086        0.58467507923716        1.14164880524884
C            1.14933344947510       -1.44625714923193       -1.57029179085023
C            0.83385623010560       -2.54154085802856       -2.34994454044944
H            1.45500287945639       -4.47929880221006       -3.02569661463295
H            3.57102729276850       -4.42593645572800       -1.75440348203563
H            4.13718754189993       -2.47103941275097       -0.38298327654756
H            5.06058946580896        1.81473093831596        0.39200310641879
H            7.25291394098114        1.64041341368821        1.49330301594030
H            7.78182460928248       -0.32506228896586        2.88933485441732
H            6.10429274490280       -2.11247333620487        3.17585530980064
H            3.91043618403676       -1.92712254404098        2.08016128042644
H            2.37000765407942        2.92721565583060        1.05266064890035
H            2.04034046814930        5.02051119313272       -0.19138642537630
H            1.92452245079360        4.98748965178713       -2.65731123043304
H            2.15561339391325        2.84554768227485       -3.86426343519010
H            2.48271212910498        0.75796048109422       -2.61616468801783
H            2.25113477744910       -0.63776868034453        3.46788013323652
H            0.37001503003838       -2.21147915940787        3.81884672094825
H           -1.68988776997597       -1.96471006544993        2.48112933440879
H           -2.08741162453161        2.86552171556672       -0.07958487546941
H           -1.26294476069562        4.23247447343886       -1.94913233452696
H           -0.78936260424243        3.18349032878358       -4.13083111766368
H           -1.15414485839367        0.76059452114475       -4.43172436921209
H           -1.97534861841973       -0.60190849052220       -2.55511450520462
H           -3.19004807400508        0.19875865529096        3.22009396126237
H           -4.98906250343372        1.29274116000407        4.49082834354084
H           -6.74373953916526        2.56039762675947        3.30614402331141
H           -6.68331652118467        2.73037677607900        0.84485133268938
H           -4.88049049629231        1.63612275243084       -0.42039714222323
H           -5.21163644950529       -1.23524877322803       -0.30348095527577
H           -5.94725773257432       -3.43621702693747       -1.11791615941096
H           -4.28904074611864       -5.21168718421938       -1.54927487236928
H           -1.89003415994270       -4.77173838593688       -1.15080018967628
H           -1.16285190003474       -2.57620879230962       -0.32971730007212
H           -0.01724228819276        1.42135040145854        0.46677511394185
H            0.46462897221982       -0.61127548750067       -1.51892167241847
H           -0.09313207097776       -2.55812224654572       -2.90574957256534
