78
 energy: -110.597142541391 gnorm: 0.000041051737 xtb: 6.7.1 (edcfbbe)
C            6.34461226431926        1.66446791366885        2.87672879123156
C            5.92664712006424        0.35247026011068        3.02639826270572
C            4.89222606515922       -0.13582125888094        2.24941787366797
C            4.25453537550536        0.67113866178670        1.31077852387094
Si           2.82680260802058       -0.01435698612146        0.27476628500587
C            2.38950793784832        1.13601476994121       -1.16784010722323
C            1.65775660259700        2.29902846488498       -0.94272976763753
C            1.28278615762349        3.12179881429034       -1.98853531305233
C            1.63572204542507        2.79382033065769       -3.28718901697120
C            2.36352769445206        1.64137997531089       -3.52968372065634
C            2.73425032060110        0.82247080402020       -2.47802196109455
C            3.29124112229556       -1.71291567374562       -0.42638466311974
C            2.29931732707694       -2.61399222213426       -0.80308519095206
C            2.62222094556640       -3.84225391105283       -1.35037657473056
C            3.94982963936521       -4.19298776912895       -1.53124100224267
C            4.94932764150628       -3.30819551967509       -1.16307557735621
C            4.61975676350268       -2.08032582946991       -0.61767870049605
C            1.24990985612244       -0.16083245295328        1.31547730497581
C            1.24054491935929       -0.30095468638780        2.69861127455109
C            0.04374315280859       -0.40549001265941        3.38747998357421
C           -1.15973638460770       -0.35738385331820        2.70594110534519
C           -1.18544744454209       -0.20549772417338        1.32243476418369
Si          -2.80028480672219       -0.06423074984674        0.34234501964328
C           -2.37191612217737       -0.35391277661413       -1.48084485169417
C           -2.61180794017085       -1.57100436746447       -2.10908217186109
C           -2.20918624842900       -1.79119340503874       -3.41449249433460
C           -1.55006563371028       -0.79450111859313       -4.11399603896561
C           -1.30877889935168        0.42657725945185       -3.50653127127529
C           -1.72052270099932        0.64234076884991       -2.20470192438811
C           -3.52082747744428        1.67893001444234        0.52088850376926
C           -4.44577535188299        2.15375683915054       -0.40524952059315
C           -4.99258353955105        3.41819288140861       -0.28493226178126
C           -4.61944587135659        4.23595300337193        0.76884579701206
C           -3.69610237664421        3.78222745474740        1.69552592202764
C           -3.15421055708180        2.51550195119119        1.56991177747362
C           -4.03260351892669       -1.35856707298111        0.96896076476774
C           -3.59695232531681       -2.63848252699382        1.30199967566743
C           -4.48420282961431       -3.60176532089547        1.74594697011666
C           -5.83035649225541       -3.29932186875989        1.86710287313875
C           -6.28012130499456       -2.03004313464022        1.54460488439541
C           -5.38732355917960       -1.07140507234085        1.10004910703944
C            0.02806479605479       -0.11998962117877        0.65472415963454
C            4.68875133322363        1.98542316130749        1.17265705454393
C            5.72351630896014        2.48020959571501        1.94619114451083
H            7.15327215270058        2.04843689478878        3.48178458127423
H            6.41008872650006       -0.28959240744003        3.74916275596157
H            4.57562798865589       -1.16331982759535        2.36437739781028
H            1.37054900692098        2.55497755620127        0.06790260806011
H            0.71140229459272        4.01852933404662       -1.79325099681495
H            1.34274069200902        3.43456598470677       -4.10690472948805
H            2.63927947364737        1.37883147180198       -4.54129002418732
H            3.29597115060525       -0.07995411132556       -2.67458387247358
H            1.26123058963273       -2.34626811604843       -0.66432650626528
H            1.83792770082969       -4.52813225509799       -1.63762147854117
H            4.20476167244726       -5.15237269232726       -1.95805306732705
H            5.98706664887130       -3.57603863591628       -1.30313067192184
H            5.40434179597602       -1.39288608848793       -0.33376871963214
H            2.17629254537558       -0.32370342553613        3.23909153835818
H            0.04952146148910       -0.51971855120898        4.46274069485205
H           -2.09118749929286       -0.43917525151685        3.24941802452278
H           -3.12200028035090       -2.35425644327351       -1.56584849734963
H           -2.40500159118608       -2.74360663237162       -3.88662350397269
H           -1.22690013583284       -0.96786246163914       -5.13032500244484
H           -0.79314738218440        1.20885440147270       -4.04462548250871
H           -1.53154716035056        1.59918135362792       -1.73774452197250
H           -4.73400063071925        1.52194938730612       -1.23414991448680
H           -5.70997958320317        3.76882818782580       -1.01342665575734
H           -5.04487531414983        5.22452336036288        0.86537545573096
H           -3.39831420091358        4.41823081251865        2.51716636185355
H           -2.43030708656254        2.16871115957672        2.29377152749856
H           -2.54580360469339       -2.87696925440741        1.21536584116252
H           -4.12738434011212       -4.59002170449995        1.99952666757186
H           -6.52588458894345       -4.04976820280025        2.21431130335954
H           -7.32904919787258       -1.78808723054801        1.64099540059474
H           -5.74335398999488       -0.08098834418697        0.85420564641758
H            0.02405056388434       -0.00843432871638       -0.42013372756993
H            4.21018120118379        2.62546700891790        0.44499749595724
H            6.04807930855233        3.50379306253443        1.82349737932037
