78
 energy: -110.476844561695 gnorm: 0.000034507583 xtb: 6.7.1 (edcfbbe)
C            1.34331695403725        0.42952916287169       -4.61273110589874
C            1.02817464617854       -0.79034507436121       -4.03897313467779
C            1.40428574024759       -1.05873867102770       -2.73594591796436
C            2.08130155391897       -0.11220859837666       -1.97209043959151
Si           2.57631236659784       -0.48717300533395       -0.18353784679364
C            3.57863884314746       -2.09789352574816       -0.15816599764775
C            4.41797366068090       -2.42211417848713       -1.22100604407802
C            5.17080609005761       -3.58203488795016       -1.20745431173979
C            5.09479025706713       -4.44433411752560       -0.12624852572941
C            4.26019814347675       -4.14039775688284        0.93626901838182
C            3.51054692881363       -2.97812123416970        0.91763398631590
C            3.62602854271628        0.93913084554943        0.49177021300615
C            3.02270056376093        2.13999975633626        0.85532913635825
C            3.77103688161124        3.19882581539170        1.33534431568371
C            5.14478235310324        3.07316285728370        1.46218361436303
C            5.76086150908413        1.88501996700518        1.10769905995747
C            5.00583136620972        0.82981128751568        0.62680923322088
C            1.05566219211781       -0.64919276714398        0.93422772074316
C            1.17991810741225       -0.45771444412392        2.34262305271718
C            0.09628547568936       -0.71115594555411        3.19856276669814
C           -1.10665013967746       -1.09932874991414        2.68695342702999
C           -1.30428981032624       -0.98751140982563        1.26032393135865
Si          -2.71409299444172        0.10879378474322        0.58643128399416
C           -4.00936619073218       -1.16084650038647        0.00108854562403
C           -3.63222710669220       -2.35880361412260       -0.59583950849906
C           -4.58271623159189       -3.24920686649947       -1.06252504634283
C           -5.92971383966504       -2.95475826304887       -0.93514821509472
C           -6.31908286171958       -1.76532673797423       -0.34237793703003
C           -5.36481541995982       -0.87723620482136        0.12133925880187
C           -2.05059607207496        1.07774824235775       -0.89136512629239
C           -0.96827741621153        1.93954542146625       -0.72578150263861
C           -0.43706189692804        2.63364030737979       -1.79516985391666
C           -0.97218648810195        2.46694614932346       -3.06163937480713
C           -2.03339597953409        1.59799103831922       -3.24895015747826
C           -2.56593823580440        0.91210873759421       -2.17277889997569
C           -3.45951228326395        1.23104223478756        1.90174096802723
C           -3.29957819014238        2.61557371425630        1.87630217023719
C           -3.81858834056280        3.41258302629013        2.87852627190706
C           -4.50984179917277        2.84125712712333        3.93536546262880
C           -4.68061312025663        1.46694453425665        3.97700739870307
C           -4.16042625632503        0.67432178229863        2.97228336796804
C           -0.14698652788135       -1.02515524057207        0.41605371947866
C            2.39438036933045        1.10498578015628       -2.56749710393307
C            2.03688558662721        1.37386408017060       -3.87599324374782
H            1.05543824361114        0.63945343396724       -5.63275272892323
H            0.49470693043267       -1.53535829545307       -4.61211326882027
H            1.18250324363645       -2.02570987342999       -2.30589158576130
H            4.47744355547073       -1.75379222154206       -2.06886243011569
H            5.81837460143397       -3.81558879680177       -2.04071478058456
H            5.68220096935029       -5.35109166423684       -0.11323928792543
H            4.19447867933671       -4.81192651699595        1.78053043653915
H            2.85712813203949       -2.74852001791827        1.74708531922659
H            1.95043915197774        2.23886374460725        0.76101432526305
H            3.28499184228072        4.12354144262634        1.61280447859984
H            5.73247845677709        3.89828853034083        1.83807565195615
H            6.83202855194587        1.78124281767946        1.20721690091239
H            5.49126334847794       -0.09666962009631        0.35390258336260
H            2.15726066114030       -0.27084868801464        2.75937247265498
H            0.25465719270343       -0.70736507870077        4.26889952272396
H           -1.91684697506707       -1.41820100163185        3.32192658297040
H           -2.58298279125354       -2.59650939543194       -0.69336523308331
H           -4.27305730152237       -4.17563975237257       -1.52498846014034
H           -6.67393510865140       -3.65021617964490       -1.29545161227574
H           -7.36875817892671       -1.52894937110706       -0.24130879736512
H           -5.67381368694002        0.05005798422317        0.58184744142137
H           -0.54164764467595        2.06092209633388        0.26028717287363
H            0.39715291387495        3.30385361407123       -1.64539232082544
H           -0.56094836158125        3.00934503837077       -3.89998028850936
H           -2.44867496091266        1.45790545712997       -4.23687550087181
H           -3.39781271293676        0.23825831126119       -2.32452666601625
H           -2.76948480878897        3.07039813694698        1.05183075714892
H           -3.68718766867811        4.48465631199261        2.83735785095597
H           -4.91578468868242        3.46351051448624        4.71961595538587
H           -5.22288199747568        1.01493672629907        4.79566261601941
H           -4.30750847456533       -0.39617002177340        3.00703270420884
H           -0.26661758881771       -1.19371253971636       -0.64227438395976
H            2.93396609783451        1.84754409193461       -1.99686807060468
H            2.29894891201160        2.32257219402012       -4.32273510904570
