89
 energy: -140.741058801366 gnorm: 0.000038668886 xtb: 6.7.1 (edcfbbe)
C           -9.02905061451457        2.71088571499233        2.20537042274566
C           -7.70861397544209        3.08040599058379        2.00113966177096
C           -6.81470930676363        2.18199783490000        1.45206473945739
C           -7.23879599332624        0.90145503891948        1.10200867548028
C           -6.29439864762219       -0.05252768530947        0.52049691014766
N           -6.74518300934131       -1.26030746871487        0.19418325208328
C           -5.85279550495413       -2.09605604376802       -0.32900472655769
C           -6.30216329234841       -3.43753080052258       -0.70097789139376
C           -7.63772720404470       -3.79973613035596       -0.53700871805486
C           -8.05871324089978       -5.06711852761741       -0.88954879654671
C           -7.15417995726570       -5.98174056275996       -1.40644642110594
C           -5.82430453507601       -5.62652357546565       -1.57102231113225
C           -5.39691018659229       -4.36061505189199       -1.22107565742298
N           -4.57557172131374       -1.78575113946660       -0.53503015549919
C           -4.21190651222655       -0.55658715529920       -0.18253062395262
C           -2.81947222322584       -0.16515565982964       -0.39622213693077
C           -1.92816225951343       -1.03844849358874       -1.01697587181301
C           -0.62286193735772       -0.64993992889540       -1.22997632433665
C           -0.18163863567095        0.60500128547705       -0.81801323107016
N            1.14485346650471        0.98264108886109       -1.07239309252450
C            1.55221631339006        2.13628851673369       -1.71084631272541
C            0.79358793807972        3.09185414355951       -2.37036068378238
C            1.45994003634461        4.15552118272374       -2.94582854724982
C            2.84791971979010        4.26366591488068       -2.88646156627410
C            3.61016459875263        3.29672180276044       -2.26311924273823
C            2.96195706140015        2.21977680289722       -1.67285340954910
C            3.42008059815321        1.05203550863510       -0.97384484794750
C            4.67648646243858        0.59420061225196       -0.60788122060869
C            4.76922373380904       -0.59904451974721        0.09393970443430
N            6.03055672984515       -1.09742811693887        0.45993862225087
C            7.09718053413023       -1.28573711756086       -0.39395375986165
C            7.17895875989982       -1.07972919940112       -1.76392982777750
C            8.37485976750865       -1.37359129074639       -2.38966816929106
C            9.46657799249880       -1.86746092521102       -1.67826661409577
C            9.38499911220674       -2.09322846700161       -0.31898462269280
C            8.19302493072770       -1.80584594768210        0.33320120236636
C            7.75595604724735       -1.92845480378023        1.69516120923932
C            8.37331795577934       -2.35684440238486        2.86301260803344
C            7.65430124591144       -2.32727061046167        4.04092607589755
C            6.34001342266087       -1.86512461224310        4.06675156491674
C            5.70398781098186       -1.43393556677983        2.91881502144166
C            6.41427335414953       -1.48167536086889        1.72746372806709
C            3.61828095598818       -1.31532526171904        0.44396688556093
C            2.35980403859645       -0.86424413675041        0.10160369612897
C            2.26503981188914        0.31418141756203       -0.62480409841372
C           -1.06084231320392        1.48312742707383       -0.16522954798178
C           -0.60877565231425        2.79470686621046        0.33372777777101
C            0.55406125398258        2.91005408293904        1.09039083008555
C            0.97861525713831        4.14784463396795        1.53503251813734
C            0.24803356770733        5.28484362218400        1.23451973402296
C           -0.92085860116963        5.17677575476974        0.50049366639634
C           -1.34945454160883        3.93998203562650        0.05658302116427
C           -2.37618914280675        1.08569250972080        0.02208377494458
N           -5.03560317861446        0.34167003560109        0.34900292605116
C           -8.56710148527597        0.53495306975472        1.30936436363326
C           -9.45588536118981        1.43822262764693        1.85891497942823
H           -9.72616207860624        3.41537120563303        2.63519245347858
H           -7.37816977311497        4.07249652416726        2.27220651793322
H           -5.78363418951094        2.45203229036818        1.28641966271600
H           -8.32704042015822       -3.07482119434829       -0.13367005757994
H           -9.09442268958802       -5.34625753263957       -0.76229392489984
H           -7.48595019891183       -6.97244352596450       -1.68108138570637
H           -5.12125542754988       -6.34113076469110       -1.97344985938550
H           -4.36609793550184       -4.06677108024917       -1.34113088092178
H           -2.28021331236954       -2.00600016288345       -1.33651239321375
H            0.06915542981071       -1.30699020608725       -1.73612391541139
H           -0.27960048562493        3.00510385488867       -2.43795912981091
H            0.89272861399617        4.91833585659733       -3.45809200952165
H            3.33075528586830        5.11242809147210       -3.34723198737616
H            4.68688781680120        3.36952226069397       -2.23521876802095
H            5.56485132967937        1.15699222163545       -0.84959001253487
H            6.33318466924058       -0.71140413283686       -2.32517873774741
H            8.46498198131047       -1.21984618352471       -3.45510741259317
H           10.38509394499873       -2.08232066673641       -2.20412059073832
H           10.22665746186636       -2.48846539018077        0.22980916822134
H            9.39645298838174       -2.70129652192361        2.84547757744577
H            8.11519401600848       -2.65797040471151        4.95992604190452
H            5.80766335966818       -1.84033038466700        5.00641292632897
H            4.69069589310949       -1.06230899685553        2.95093963728820
H            3.72766747784644       -2.24288328435846        0.98522438904108
H            1.47832772059103       -1.41630256302692        0.39075355645968
H            1.12177221267874        2.02667385970245        1.34527503751056
H            1.88485373734404        4.22454013732378        2.11748629582956
H            0.58640527794124        6.25192988976445        1.57549341737799
H           -1.49868600665609        6.05988883227336        0.27013138479545
H           -2.25458822319596        3.85830504530213       -0.52831265282577
H           -3.07078701196663        1.73917612350589        0.52642527198600
H           -8.88085393797557       -0.45962893861367        1.03423774195750
H          -10.48518501354330        1.15254571100254        2.01929524407471
