  89
       -140.66332792
 C         -7.0131174138        5.4283109269       -0.8614031241
 C         -5.7110405612        5.0033353352       -1.0839063687
 C         -5.3468082704        3.7032929136       -0.8007884285
 C         -6.2874311108        2.8076684737       -0.2881385729
 C         -5.9092857208        1.4345133984        0.0148500801
 N         -6.8590517739        0.6027259135        0.4877871071
 C         -6.4736542560       -0.6567462393        0.7718778536
 C         -7.4733473666       -1.5785808398        1.2945007516
 C         -8.7965147070       -1.1641392293        1.4524409066
 C         -9.7418021380       -2.0380184089        1.9504800633
 C         -9.3819635116       -3.3313564976        2.2975134172
 C         -8.0681697010       -3.7495460107        2.1423418032
 C         -7.1176844770       -2.8824620479        1.6442556206
 N         -5.2469777395       -1.0769406811        0.6035020485
 C         -4.3203367423       -0.2179546880        0.1122896771
 C         -2.9840919203       -0.6504130460       -0.0853540543
 C         -2.5999363439       -1.9800217624        0.1953129398
 C         -1.3030330049       -2.3803576446        0.0108068809
 C         -0.3380775807       -1.4854454470       -0.4620163845
 N          0.9929446520       -1.9103454759       -0.6138244379
 C          1.4263610587       -2.9267314754       -1.4399650847
 C          0.6845846989       -3.8263211834       -2.1919372046
 C          1.3750463677       -4.7488967843       -2.9558563332
 C          2.7678097717       -4.7758091645       -2.9805767088
 C          3.5121498714       -3.8690133837       -2.2491121545
 C          2.8418460324       -2.9327437686       -1.4750648522
 C          3.2705605934       -1.8535679615       -0.6291369554
 C          4.5087499389       -1.3256347308       -0.3086634620
 C          4.5582477908       -0.2274518997        0.5427471233
 N          5.7858000106        0.3725444813        0.8439243557
 C          6.9274719133       -0.2698462442        1.2757422224
 C          7.1315687190       -1.6134507458        1.5586050915
 C          8.3808057863       -1.9939298251        2.0118938663
 C          9.4028618497       -1.0650055060        2.1911301994
 C          9.1976972235        0.2781266086        1.9348876088
 C          7.9527179856        0.6840708792        1.4775609408
 C          7.3908369362        1.9641185631        1.1387512978
 C          7.8982437770        3.2550099802        1.1135618182
 C          7.0707557322        4.2823450397        0.7000363140
 C          5.7606955062        4.0317814257        0.2984220996
 C          5.2320493513        2.7547915703        0.3140775518
 C          6.0508062136        1.7241333823        0.7556772806
 C          3.3870774334        0.2997464594        1.1091754433
 C          2.1498035473       -0.2147523457        0.8002659279
 C          2.0892061027       -1.2662030333       -0.1082412274
 C         -0.7012113155       -0.1554175046       -0.7675024906
 C          0.2906460136        0.7961385391       -1.3017453598
 C          0.4325382570        2.0527965330       -0.7189311678
 C          1.4001224323        2.9318002018       -1.1679652887
 C          2.2366984716        2.5719380168       -2.2113140694
 C          2.0823138838        1.3370782667       -2.8185661799
 C          1.1148470217        0.4568958939       -2.3717070186
 C         -2.0046199836        0.2408389767       -0.5661228617
 N         -4.6728953627        1.0563784122       -0.1812763159
 C         -7.5957714990        3.2411002132       -0.0673022054
 C         -7.9522452583        4.5434966269       -0.3533906538
 H         -7.2943384740        6.4474258869       -1.0831986899
 H         -4.9801310283        5.6930103482       -1.4809898526
 H         -4.3387916739        3.3576981354       -0.9710986394
 H         -9.0601509647       -0.1546069826        1.1779759162
 H        -10.7653642111       -1.7132737474        2.0700104866
 H        -10.1233672079       -4.0128119939        2.6883519649
 H         -7.7884083255       -4.7572258872        2.4141863093
 H         -6.0909178944       -3.1916689300        1.5217331285
 H         -3.3462438786       -2.6640749395        0.5663358362
 H         -1.0000745415       -3.3888817117        0.2541770673
 H         -0.3942019687       -3.8004656718       -2.1856779472
 H          0.8230260052       -5.4628434774       -3.5485565927
 H          3.2702192732       -5.5134045438       -3.5881969639
 H          4.5911858661       -3.8832361890       -2.2805761819
 H          5.4138804083       -1.7280856797       -0.7366924508
 H          6.3386924949       -2.3364719732        1.4419618718
 H          8.5664180660       -3.0336122227        2.2370315105
 H         10.3655357697       -1.4017211148        2.5456462275
 H          9.9860190572        0.9989858197        2.0900485660
 H          8.9192124003        3.4484446254        1.4058514194
 H          7.4453876158        5.2947417873        0.6769109535
 H          5.1451503748        4.8533905123       -0.0362661065
 H          4.2224825951        2.5644095178       -0.0180118201
 H          3.4730940734        1.1122649332        1.8141228886
 H          1.2548511523        0.1791653782        1.2543416983
 H         -0.2079622762        2.3279036445        0.1068746808
 H          1.5076600489        3.8982543170       -0.6965804906
 H          3.0025236293        3.2523723985       -2.5539334008
 H          2.7201038171        1.0572493047       -3.6443660376
 H          0.9924944562       -0.4976549250       -2.8638926837
 H         -2.3066078965        1.2483985086       -0.8077173970
 H         -8.3137732322        2.5416989486        0.3315446281
 H         -8.9645417187        4.8763549803       -0.1756528483
