  89
       -140.74096591
 C         -9.0259815209        2.7231765131        2.1919417788
 C         -7.7139326144        3.1006826084        1.9520626098
 C         -6.8209070713        2.1968929111        1.4106341670
 C         -7.2378523143        0.9032956270        1.1025417199
 C         -6.2943628880       -0.0545562759        0.5259540814
 N         -6.7465934738       -1.2620258271        0.2004593619
 C         -5.8559499968       -2.0976473529       -0.3260709814
 C         -6.3084428541       -3.4357544097       -0.7064108590
 C         -7.6445682774       -3.7964868342       -0.5443918589
 C         -8.0683223613       -5.0602806951       -0.9065011442
 C         -7.1659757017       -5.9726868071       -1.4309390857
 C         -5.8355616685       -5.6187727364       -1.5940251493
 C         -5.4055258824       -4.3564808673       -1.2347698993
 N         -4.5779157482       -1.7894475136       -0.5305022654
 C         -4.2117943388       -0.5621497233       -0.1742323022
 C         -2.8180079600       -0.1733394231       -0.3841671260
 C         -1.9299076725       -1.0441970835       -1.0128134450
 C         -0.6248367203       -0.6558979541       -1.2275419920
 C         -0.1815652580        0.5966314672       -0.8108356553
 N          1.1431691690        0.9761571052       -1.0724042696
 C          1.5439607793        2.1295702747       -1.7149599755
 C          0.7783459352        3.0821577502       -2.3706089510
 C          1.4382054450        4.1460195056       -2.9530583379
 C          2.8263301987        4.2573051391       -2.9031103232
 C          3.5951116952        3.2942597627       -2.2816572174
 C          2.9537217815        2.2169326394       -1.6845854172
 C          3.4185389192        1.0526516650       -0.9839728431
 C          4.6775027956        0.6005195651       -0.6191192280
 C          4.7756210899       -0.5888502152        0.0884730276
 N          6.0381557779       -1.0811629112        0.4587621334
 C          7.1047619172       -1.2810787355       -0.3924140394
 C          7.1908404675       -1.0812836353       -1.7629885815
 C          8.3855604520       -1.3872233446       -2.3852441780
 C          9.4720406097       -1.8864417986       -1.6697771199
 C          9.3864453618       -2.1049447472       -0.3095308877
 C          8.1957294770       -1.8051652578        0.3392452587
 C          7.7555729764       -1.9183849062        1.7010248067
 C          8.3676509846       -2.3454361788        2.8721894276
 C          7.6464449004       -2.3053659517        4.0484247925
 C          6.3353038287       -1.8338608412        4.0695132725
 C          5.7046126939       -1.4038874524        2.9182843780
 C          6.4169877035       -1.4624041966        1.7286369995
 C          3.6280118410       -1.3084668428        0.4428706471
 C          2.3672552196       -0.8635285460        0.1014364451
 C          2.2670328839        0.3125038215       -0.6279885731
 C         -1.0565592483        1.4713480116       -0.1477840687
 C         -0.6004559471        2.7805025099        0.3536602616
 C          0.5736433497        2.8946561440        1.0929188265
 C          1.0045137908        4.1313629419        1.5340916634
 C          0.2683870672        5.2687818339        1.2492036119
 C         -0.9127717700        5.1616568405        0.5353851119
 C         -1.3469127259        3.9260301729        0.0936568830
 C         -2.3714353627        1.0735000353        0.0425965616
 N         -5.0348587529        0.3377648721        0.3552294916
 C         -8.5581623377        0.5289467080        1.3446686250
 C         -9.4457021375        1.4372983102        1.8877767798
 H         -9.7226129998        3.4319616988        2.6155369295
 H         -7.3896676876        4.1033176768        2.1882733898
 H         -5.7974940540        2.4734119860        1.2147103411
 H         -8.3323142833       -3.0732728142       -0.1355208187
 H         -9.1044971667       -5.3383523908       -0.7808137069
 H         -7.4999156237       -6.9603818932       -1.7136327149
 H         -5.1342556038       -6.3318414243       -2.0022807505
 H         -4.3733249916       -4.0646091166       -1.3500060106
 H         -2.2841870182       -2.0093753285       -1.3371373947
 H          0.0652389334       -1.3105288259       -1.7394666828
 H         -0.2952516476        2.9931711120       -2.4291089093
 H          0.8657420978        4.9069213763       -3.4623035716
 H          3.3040917121        5.1058879060       -3.3694453839
 H          4.6717870022        3.3702402698       -2.2610102938
 H          5.5634367458        1.1654765953       -0.8646910517
 H          6.3493491171       -0.7078605575       -2.3273068609
 H          8.4790707879       -1.2380801876       -3.4510788867
 H         10.3893506692       -2.1120275701       -2.1932232657
 H         10.2235815141       -2.5053677310        0.2425324589
 H          9.3884059977       -2.6970947670        2.8584917018
 H          8.1029673375       -2.6353444534        4.9698975224
 H          5.8012462957       -1.8013761037        5.0079488050
 H          4.6938177690       -1.0251406109        2.9461414060
 H          3.7421264411       -2.2337174124        0.9871512010
 H          1.4882789446       -1.4180506002        0.3934268860
 H          1.1451668294        2.0110244301        1.3380203988
 H          1.9198548478        4.2066973361        2.1018667150
 H          0.6122702965        6.2353472568        1.5860209295
 H         -1.4943371653        6.0451345685        0.3163432553
 H         -2.2584830761        3.8468395955       -0.4806374288
 H         -3.0636645091        1.7239406952        0.5541769637
 H         -8.8659456831       -0.4758680563        1.1031369337
 H        -10.4673766505        1.1452257146        2.0782988619
