89
 energy: -140.741046408017 gnorm: 0.000075407602 xtb: 6.7.1 (edcfbbe)
C           -9.06227377474021        2.59411262366266        2.15603393664916
C           -7.73528848486921        2.95743711315288        1.98602137226065
C           -6.83593357533580        2.06168699935659        1.44151374944404
C           -7.26100864901440        0.78983769015265        1.06218865536085
C           -6.31092941045484       -0.16140761647515        0.48550210337195
N           -6.75491318809936       -1.37294139398088        0.16385403435557
C           -5.85759269178617       -2.20599891436556       -0.35522967005618
C           -6.30048429579813       -3.54983131008775       -0.72651047844638
C           -7.62728456882855       -3.92885092159860       -0.53217237845165
C           -8.04277581598341       -5.19785281730958       -0.88540077234433
C           -7.14151703582373       -6.09725679907924       -1.43375712914755
C           -5.82038176096552       -5.72525784193659       -1.62880172467557
C           -5.39840494664595       -4.45782546866507       -1.27778750898837
N           -4.58126437206782       -1.89053720316369       -0.55860001405308
C           -4.22465343286190       -0.65767207166674       -0.21169906572412
C           -2.83384644039241       -0.26056762534472       -0.42561410531665
C           -1.92460634787100       -1.15344060870007       -0.98999937045742
C           -0.62110607961251       -0.76069193287814       -1.20533886067408
C           -0.19994964640607        0.51922778447884       -0.85342699205534
N            1.12531069422096        0.89803337845876       -1.11231286908769
C            1.52925316020415        2.01568244205943       -1.81365502517809
C            0.76840835173898        2.92903666578784       -2.52812257999669
C            1.43183731522555        3.96127132492083       -3.16130643542802
C            2.81917979452638        4.07869852971873       -3.10466021797896
C            3.58376440899139        3.15229727188261       -2.42511397205280
C            2.93857596067264        2.10772100688240       -1.77623467184752
C            3.39982753492523        0.98338754129443       -1.01114958470623
C            4.65701788510825        0.55148409004989       -0.61710187265050
C            4.75191317512605       -0.59937071353595        0.15189698156847
N            6.01385786213352       -1.07280800345563        0.54809776963663
C            7.07899687012647       -1.31794481039745       -0.29292610326895
C            7.16036396880067       -1.19723986205631       -1.67302720781968
C            8.35445209372409       -1.53442828374962       -2.28009654169728
C            9.44468842777227       -1.98789657123643       -1.54007357433446
C            9.36360547432432       -2.12818668311931       -0.16928543693711
C            8.17344094346604       -1.79594679025345        0.46464763632738
C            7.73698948569829       -1.83159575819740        1.83187898750816
C            8.35327798323151       -2.18833690154495        3.02414327836245
C            7.63496533999699       -2.08212008704219        4.19808423670509
C            6.32229439921650       -1.61462173651490        4.19537221410836
C            5.68714083019243       -1.25424710145250        3.02282102740943
C            6.39693633488819       -1.37885951475978        1.83677604058775
C            3.60277248541884       -1.29855509867547        0.54027899359471
C            2.34370805044731       -0.87311361454159        0.16889496743302
C            2.24686064746532        0.26132035094995       -0.62427588766974
C           -1.09753655746853        1.41907682196259       -0.25794528255952
C           -0.66813250617199        2.76111376725016        0.17574974081313
C            0.48605640436120        2.93295903781688        0.93493888969883
C            0.88879662523680        4.19842351873594        1.31780257117477
C            0.14482009460496        5.30735357890564        0.95229522714711
C           -1.01559206163967        5.14393907635988        0.21505134593794
C           -1.42235702622571        3.87950469807395       -0.16721993858593
C           -2.41031295732622        1.01504479444055       -0.06577083758783
N           -5.05430595036823        0.23920172478772        0.31279089033482
C           -8.59583317263830        0.42940204751825        1.23554848712414
C           -9.49014994860089        1.33017264320543        1.78018011407273
H           -9.76368747663095        3.29663113315370        2.58205814638676
H           -7.40396109365028        3.94262004532736        2.28019693351398
H           -5.79961155963051        2.32689412273351        1.30301637847749
H           -8.31401201033618       -3.21575061594363       -0.10413371133953
H           -9.07164489566641       -5.49006315645503       -0.73424997042317
H           -7.46904743044846       -7.08910132534725       -1.70937328001629
H           -5.11997414175605       -6.42789656260584       -2.05614758111590
H           -4.37459497213712       -4.15087409114826       -1.42237817019686
H           -2.26115381570375       -2.14038344090069       -1.26351829656424
H            0.08540894036156       -1.43445847332152       -1.66759769046178
H           -0.30419338582527        2.83395607867549       -2.59349053444053
H            0.86278127897975        4.69123006165030       -3.71752327632436
H            3.29970223210292        4.90187018141672       -3.61193398006544
H            4.66007238257261        3.23144364677485       -2.39854984299593
H            5.54430408616903        1.10208878455873       -0.88901688812710
H            6.31561435010800       -0.86038165570591       -2.25522630013554
H            8.44433093629189       -1.44742324554707       -3.35307274384323
H           10.36174741952520       -2.23908417558721       -2.05220132984443
H           10.20419978656192       -2.49198305505514        0.40240894086216
H            9.37505829764223       -2.53721228966005        3.02802323290068
H            8.09518018158521       -2.35611515302955        5.13589232210903
H            5.79065295667049       -1.52892490462295        5.13185187263343
H            4.67496317444233       -0.87824419323228        3.03136786785248
H            3.71441425900850       -2.19253510876823        1.13498700469822
H            1.46333166066291       -1.41114231517243        0.48647897517738
H            1.06399829802173        2.07262597074133        1.24053653925029
H            1.78845068221909        4.31878181873521        1.90308573016087
H            0.46614467259536        6.29579050691779        1.24519034686425
H           -1.60396751790597        6.00517215490394       -0.06593120795212
H           -2.32087718465164        3.75432570265598       -0.75463157318178
H           -3.11924072695648        1.68497643735747        0.39515335035223
H           -8.91045470830603       -0.55821244021703        0.93729759032143
H          -10.52460957975312        1.04935709063015        1.91368500425058
