76
 energy: -117.356599807824 gnorm: 0.000029826494 xtb: 6.7.1 (edcfbbe)
O            7.53735686464383        3.58861220019760        0.69552248646610
C            7.67171409295579        2.41894508113098        0.36301452558163
C            9.00061706349083        1.86874784441381        0.00201272295685
C            9.36227920285229        0.55975348754977        0.31853313658966
C           10.62656263578905        0.09583085907224        0.00365693372666
C           11.53610378784870        0.92511079701396       -0.63401915141356
C           11.18655200205370        2.23066731469836       -0.94285913648004
C            9.92995537903406        2.70414954139885       -0.61644086468522
C            6.51611639062567        1.49671250988677        0.30940812083070
C            5.43699762416164        1.71888183718650        1.16653709151452
C            4.33425036513587        0.89305011171533        1.14179722857898
C            4.27318398463876       -0.16340011057360        0.23150909387796
N            3.15404679194712       -0.99648835180781        0.19264562780442
C            3.17100635010048       -2.38087683447667        0.16775646181492
C            4.24653206734659       -3.25507880803870        0.23369754565494
C            3.97857722688523       -4.61149859254239        0.22801923973584
C            2.67378066304316       -5.09552178645641        0.16924338287761
C            1.59788838859360       -4.23034096113735        0.13089083918465
C            1.84294948108946       -2.86355229984914        0.13558979944013
C            0.98686746712027       -1.70842896461338        0.12936433389026
C           -0.38926983287980       -1.54973685278606        0.07922668881414
C           -0.92619612786172       -0.26784291852261        0.06659726418872
C           -2.38168023528949       -0.06986058307508        0.02636632946442
C           -2.99169760248341        0.92965888769245        0.78366801583657
C           -4.35844895788958        1.11139467847064        0.75648725320870
C           -5.16442224480016        0.30270585151601       -0.04539730861281
N           -6.55111546443906        0.48672220013985       -0.08020249377283
C           -7.08766433338668        1.77844482834593       -0.02379699081008
C           -8.26582898113622        2.02642220318007        0.68117508404153
C           -8.79434345136469        3.30207640274265        0.72849532272481
C           -8.15701174612032        4.35099921418770        0.08526374258919
C           -6.98355463082761        4.11162379826087       -0.61176607204141
C           -6.45224680581438        2.83774656175415       -0.67253527554772
C           -7.40081214994827       -0.62271823665245       -0.16703122130075
C           -8.56514603817388       -0.56506094991905       -0.93340189246574
C           -9.40225601063612       -1.66136243863097       -1.01243946549708
C           -9.09124328890709       -2.83264783588458       -0.34049967911557
C           -7.93390271507128       -2.89696042864540        0.41879786802900
C           -7.09487088861095       -1.80319326038876        0.51077819108753
C           -4.55972258190041       -0.69407652659195       -0.81193918853437
C           -3.19380038374025       -0.87826102877163       -0.76833245315121
C           -0.06590571883633        0.83922941047013        0.07997230470100
C            1.30685133432954        0.70349378037017        0.12369451711314
C            1.83476466570593       -0.57902187922471        0.17172016138190
C            5.33693658905487       -0.37189457676365       -0.64778610563272
C            6.44820483221339        0.44392075257122       -0.60433415509113
H            8.66231625858663       -0.08138126966759        0.83365594289100
H           10.90455433146709       -0.91637004847891        0.25787098227888
H           12.51993975668718        0.55629182355064       -0.88391410975836
H           11.89603904459794        2.88087374221679       -1.43288544612176
H            9.64249719091496        3.72106319051344       -0.84228759569928
H            5.49376863070863        2.54041731495524        1.86576858908070
H            3.52137258809383        1.04904842024759        1.83444556356086
H            5.26152053361457       -2.89437332017573        0.29993932332954
H            4.80001933451347       -5.31147014188149        0.27471503040493
H            2.50533710296337       -6.16240091557384        0.16427089383231
H            0.58536746002879       -4.60425751363701        0.10459376238821
H           -1.03557526159245       -2.41423696162841        0.06722573253657
H           -2.38907754014696        1.55427513749828        1.42695028822619
H           -4.81475176199970        1.88046495061182        1.36301086035532
H           -8.76043754034204        1.21284914377744        1.19196080814065
H           -9.70649416363464        3.47965336526722        1.27972201122466
H           -8.57129545426319        5.34718261331727        0.12751706369888
H           -6.48174121468678        4.92191530920682       -1.12085997309573
H           -5.54265770841263        2.65275662434146       -1.22545399835007
H           -8.80564720645824        0.34348942849094       -1.46631662339331
H          -10.29975518574433       -1.60320265950099       -1.61123306181588
H           -9.74626582884556       -3.68836218048839       -0.40726091046001
H           -7.68596767924496       -3.80370521916603        0.95150495402442
H           -6.19777073870849       -1.85341109920635        1.11077109226878
H           -5.17073740562483       -1.31984837018043       -1.44643542771371
H           -2.74410992483154       -1.64309416051851       -1.38467726160008
H           -0.49202622848730        1.83033576772830        0.02900138003406
H            1.94431400503183        1.57438736557502        0.10398947588821
H            5.27459099822303       -1.16414665737757       -1.37824368199236
H            7.25371454702575        0.28817839161879       -1.30600852370766
