76
 energy: -117.276801642156 gnorm: 0.000066568006 xtb: 6.7.1 (edcfbbe)
O            7.42801569546787        3.18703700280457       -1.16983930253258
C            7.53520935532209        2.07098772588708       -0.56851536550909
C            8.83192671165211        1.67684453664569       -0.01055592695122
C            9.26022257331995        0.34322176965834        0.03281920619566
C           10.51031481514456        0.02495600898758        0.52222594698886
C           11.36846903499229        1.01981286335026        0.97056644055183
C           10.96927811216892        2.34754298579676        0.90075865623182
C            9.72413541416390        2.67420221640028        0.40830812857750
C            6.39037964402289        1.20784914718935       -0.42488379606806
C            6.27680086080060        0.20918773153613        0.56970074107844
C            5.15043410603850       -0.56491960444087        0.66950330272322
C            4.06833607532227       -0.37042831131792       -0.20209650177635
N            2.92387822924762       -1.16762388241893       -0.10104395624183
C            2.90663941488070       -2.55250379032298       -0.05896034209718
C            3.96299202067813       -3.44920084499823       -0.11810320857344
C            3.66545155430781       -4.80086221007126       -0.08125774870060
C            2.35131321452109       -5.25251325716680        0.00344656151721
C            1.29184066466605       -4.36241496473475        0.03875360963509
C            1.56659846399459       -3.00374193717851        0.00098107064202
C            0.74167049857004       -1.82443637489607       -0.00354603440100
C           -0.62098099372102       -1.62227557539069        0.04313433493218
C           -1.12641905771661       -0.31603648393346        0.02983878990620
C           -2.56037873998027       -0.08031221934504        0.05053310552647
C           -3.12340186309131        1.04070967079331       -0.58038206713122
C           -4.47889666026073        1.26042433803108       -0.57546177025520
C           -5.34540966428156        0.36401208840064        0.06681799170931
N           -6.71440610171636        0.57805627275918        0.07013286055152
C           -7.59859777894601       -0.50862077877472        0.04306140187314
C           -8.77830190148975       -0.47600328876488        0.78836618035707
C           -9.65057691342821       -1.54649461074806        0.74984699241174
C           -9.36176065156134       -2.65944374234619       -0.02517637644836
C           -8.19084478758067       -2.69560727731316       -0.76689103351284
C           -7.31258645744476       -1.62984992494167       -0.73820754076877
C           -7.22748432708445        1.88120812502516        0.09278569903933
C           -6.60905448099274        2.86876225948655        0.86210176642559
C           -7.12132149824973        4.15133985741035        0.88347739653392
C           -8.25318027880840        4.46693907166529        0.14734808030642
C           -8.87258431813981        3.48796725827529       -0.61471236779143
C           -8.36716971138003        2.20283444177683       -0.64643500139579
C           -4.79312181714914       -0.75640720005077        0.70471987907925
C           -3.43673252652920       -0.96896338487047        0.69410361868489
C           -0.22124584769203        0.76821995359103        0.00160339499278
C            1.14043011899532        0.58754372169802       -0.03607520359947
C            1.63308535369365       -0.71708691993432       -0.06579323374272
C            4.14215657809801        0.65303806761925       -1.15995238028364
C            5.26522873556296        1.42736159140490       -1.25756230045353
H            8.62074779027739       -0.43618583595000       -0.35580600404690
H           10.82653328199029       -1.00887073863540        0.54445574116105
H           12.34453620612724        0.76388101167271        1.35592664146140
H           11.63638719449489        3.13157554646043        1.23153613670854
H            9.40508656355780        3.70523924283130        0.34269944860818
H            7.07322595257240        0.08269420371922        1.28749578061549
H            5.07005868086940       -1.30438540960085        1.45358876518597
H            4.98278642438781       -3.10623426584576       -0.20004752487462
H            4.47114880688235       -5.51858981768713       -0.12380016161421
H            2.15901603614236       -6.31470569422555        0.03206066116039
H            0.27348053869098       -4.71645276945471        0.08767163168201
H           -1.28912058049041       -2.46890417379739        0.05622022752461
H           -2.48533296643092        1.72332809191443       -1.11979200887575
H           -4.88994744289007        2.11335245118154       -1.09479159497647
H           -8.99734448530246        0.38537530392415        1.40168284659296
H          -10.55818857607032       -1.51500727403800        1.33385382199755
H          -10.04652374617907       -3.49328267379848       -0.05218263372205
H           -7.96422768302888       -3.55578832045820       -1.37901033180515
H           -6.40943112818230       -1.65007860038770       -1.32991298741814
H           -5.73832292486270        2.61881097844720        1.44997602929508
H           -6.63925631909403        4.90691056008400        1.48570963139465
H           -8.65086573201196        5.47010996027710        0.16842000688715
H           -9.75092046434210        3.72907300183541       -1.19461612077476
H           -8.84188585795409        1.44432295552896       -1.25093791342111
H           -5.44361717333706       -1.43953870303728        1.23026926910906
H           -3.03673101162625       -1.81546691369528        1.23019498439824
H           -0.60877939651583        1.77391338989096        0.05093399058878
H            1.81361577305986        1.43113033319432       -0.02544032180670
H            3.31762254782057        0.79964531329254       -1.84291661013974
H            5.33837535764247        2.21296950643330       -1.99605033605761
