76
 energy: -117.356577893935 gnorm: 0.000156270617 xtb: 6.7.1 (edcfbbe)
O            9.03596618586803        0.26094558285374       -0.66222137003855
C            8.01981553174270        0.86143909864913       -0.34066685333614
C            8.04784075906763        2.31145390228999       -0.03082622685785
C            9.18718308809223        2.84959790799895        0.56598553752616
C            9.25538397343011        4.20034046984758        0.84978513702623
C            8.19577345545047        5.03119099605596        0.51986000207159
C            7.07049629960691        4.50840773014858       -0.09824070002637
C            6.99056589428740        3.15475777129030       -0.37031786474435
C            6.71501511301161        0.17035545143778       -0.24636180926759
C            5.72848171020183        0.56568722342033        0.65835164853266
C            4.53825200872761       -0.12652077721780        0.73900368546638
C            4.30094307661406       -1.22247366297662       -0.09200765349932
N            3.08688428222688       -1.90718232021942       -0.02096680697966
C            2.92972493017538       -3.28032445977233        0.06174576531199
C            3.89006582296672       -4.27754485024396        0.15471586925779
C            3.45501913727023       -5.58575294188955        0.25993623395962
C            2.09864823083302       -5.90206549164036        0.28507798843307
C            1.13830814733726       -4.91134161451940        0.22322535128442
C            1.55168836500496       -3.58987211615398        0.11732312988325
C            0.84720536140089       -2.33790554120542        0.05594359740911
C           -0.49893785312100       -2.00727832601501        0.04919193759959
C           -0.87127522029063       -0.67108515716138       -0.04169736722524
C           -2.29061909066450       -0.29113757619979       -0.03961546708912
C           -2.73011011914045        0.84056127788984        0.64685180495853
C           -4.06286858220561        1.19419471806518        0.66099514596686
C           -5.00562449146527        0.42953388269982       -0.02679510614585
N           -6.35870693585329        0.78708543510760       -0.01753914886265
C           -6.72416665071777        2.13777483792784       -0.06171427099111
C           -7.81758670478693        2.60142267805474        0.67041302647688
C           -8.17651254774352        3.93459309248167        0.61841579013536
C           -7.45036627342775        4.82823043256545       -0.15249946832825
C           -6.35931613582008        4.37460366850914       -0.87637255161505
C           -5.99853093201676        3.04149464817894       -0.83849674500560
C           -7.34370547741331       -0.20553568878993        0.04600358922480
C           -8.54037152055798       -0.06268350084609       -0.65693044355887
C           -9.51302964021938       -1.04118069811038       -0.58349368098033
C           -9.30855473624784       -2.17930406399327        0.18012452633689
C           -8.11870268619213       -2.33017043463578        0.87404716726891
C           -7.14410684989539       -1.35273930927123        0.81459885224001
C           -4.57202901315511       -0.69936943032392       -0.72270035387841
C           -3.23923895705720       -1.05333594773391       -0.72105514283793
C            0.12079477912232        0.31426215066062       -0.14754766168428
C            1.46607109857179        0.00647083477492       -0.14691875007249
C            1.83086181183117       -1.32670734641198       -0.02261606456747
C            5.28923970235287       -1.62774353832844       -0.99043788193643
C            6.48496449252030       -0.94573727174113       -1.05273727948029
H           10.00617363517718        2.18786457287148        0.80904712173564
H           10.13672016832351        4.60664994677505        1.32349304753286
H            8.25071850232974        6.08765682641293        0.73713502460097
H            6.25209922886331        5.15869549169936       -0.36986239606578
H            6.12147332131133        2.75253100250546       -0.86958022489734
H            5.90969926635190        1.39656370703120        1.32328276160780
H            3.79024141417774        0.16283649657758        1.46139647777986
H            4.94422234615083       -4.04538993891478        0.15737595401203
H            4.18433352373599       -6.37967909882384        0.32897629710828
H            1.79891205288333       -6.93670325236696        0.36494301342497
H            0.08698573743009       -5.15414920048555        0.26279491164331
H           -1.24779173031136       -2.78032518524827        0.13115143676535
H           -2.02120172671615        1.43540234611331        1.20407105868970
H           -4.38630678391612        2.06528458900001        1.21248647253036
H           -8.38026586367099        1.90964638718896        1.28050383803541
H           -9.02490157234244        4.27927549156809        1.19190027200838
H           -7.73226916777119        5.86993717178111       -0.18844097906154
H           -5.78930992345481        5.06250529936258       -1.48411481397144
H           -5.15371690886117        2.68931705156506       -1.41254710005569
H           -8.69975495426828        0.81907442444670       -1.26063880603024
H          -10.43465156498277       -0.91698240899895       -1.13362107644289
H          -10.07015669050102       -2.94282815312815        0.23347293966411
H           -7.95124187754718       -3.21203202032180        1.47555757443751
H           -6.22207418148493       -1.46890546115526        1.36561170956971
H           -5.28972071239078       -1.29411810535339       -1.26925305503141
H           -2.92305802612835       -1.91989837417923       -1.28334813528833
H           -0.17974387187465        1.34569099062893       -0.25779597796148
H            2.20668328309405        0.78410193209133       -0.25577660726089
H            5.10547306671815       -2.46579612624774       -1.64524166654504
H            7.25711958659676       -1.25048381487444       -1.74410849171828
