76
 energy: -117.276745233337 gnorm: 0.000051982619 xtb: 6.7.1 (edcfbbe)
O            8.92391451592530        0.34951954866684       -1.05622589723136
C            7.93037492482610        0.94170854938440       -0.52492143319033
C            8.08457222174166        2.32083046039691       -0.05555241725022
C            9.35079307065346        2.76028058655630        0.35792216336448
C            9.54949574009849        4.06177154981054        0.76505071988641
C            8.49761166642072        4.96769859559261        0.75335472200394
C            7.24822285306417        4.55643697051340        0.30931416819946
C            7.03984703542216        3.25441053260838       -0.09636738721341
C            6.66885224200412        0.26032567161770       -0.38029125294976
C            5.67948458619799        0.62486281327071        0.56175675059868
C            4.50707528408476       -0.07736748269862        0.66253754244588
C            4.26549639984291       -1.19207022263890       -0.15478351024606
N            3.05507888637215       -1.88679616829859       -0.06194249237403
C            2.91673383972933       -3.25898428987761        0.06529681595465
C            3.89419978575098       -4.23713333455344        0.17561260863929
C            3.48007046425360       -5.55103357064299        0.31331563752216
C            2.12925419659119       -5.88606254407328        0.35035075044140
C            1.14976615133642       -4.91126872120577        0.26909274668316
C            1.54158569868745       -3.58796540806206        0.13375701435274
C            0.82266746083072       -2.34425547491931        0.04647607534562
C           -0.51826703096987       -2.02253809294213        0.04865639916073
C           -0.90511000780854       -0.68134156375704       -0.05780589435101
C           -2.31172926587411       -0.31364339157451       -0.03929175241185
C           -2.73798134087097        0.90180339808055        0.51810111843313
C           -4.06493530718003        1.25479164459850        0.53651336603954
C           -5.03780577646037        0.40713251623378       -0.01364926857629
N           -6.37555464034682        0.76414505545649       -0.00695399676868
C           -6.75268630781330        2.11181643978516       -0.08586267431934
C           -7.83032140217382        2.58364985423594        0.66546433550356
C           -8.20563655404707        3.91028031290323        0.58004564362087
C           -7.51588053150694        4.78224157104793       -0.24857442112582
C           -6.44545497281619        4.31721597186348       -0.99717910478839
C           -6.06341686660325        2.99180483407166       -0.92221635750094
C           -7.37377391307646       -0.21625256566917        0.07997511639620
C           -8.54804642014110       -0.08899286701696       -0.66360577509491
C           -9.53621475042231       -1.04935798866661       -0.56635379903361
C           -9.36954898575772       -2.14505819385678        0.26693615204302
C           -8.20389437831175       -2.27552122095477        1.00633679832272
C           -7.21006664437383       -1.32003137832029        0.91872754041002
C           -4.62147950221279       -0.81048175261007       -0.57212622515687
C           -3.29331672743668       -1.15948408004730       -0.57827840036459
C            0.08893036787828        0.31170955419689       -0.19683964773571
C            1.42943131950453        0.00972006761568       -0.21764352333977
C            1.80776456112347       -1.32453485434730       -0.07159287668733
C            5.26100897039717       -1.60240453594233       -1.05507782048025
C            6.43279743158578       -0.90357427524263       -1.15294727330699
H           10.16392017055137        2.04749535094632        0.35608785418680
H           10.53098573253551        4.37639348680815        1.09204621702850
H            8.65392654026049        5.98805309169828        1.07132521277421
H            6.43218165066246        5.26473783200651        0.26808819293047
H            6.07554772340056        2.96032739483159       -0.48471946987080
H            5.86851935220314        1.44324147070450        1.24002822273703
H            3.77393751218999        0.19762474864361        1.40757615030806
H            4.94298602990938       -3.98310810660557        0.16613844248707
H            4.22236515559497       -6.33070272319108        0.39835592048111
H            1.84552680651685       -6.92267798967234        0.45521924046113
H            0.10377290114933       -5.17314109632309        0.31623059000465
H           -1.25847030910200       -2.79864301369896        0.16464855589842
H           -2.01543480239951        1.55570821711395        0.98139220170062
H           -4.37056347474221        2.18040206156848        1.00105517529061
H           -8.35945964744427        1.90759803673069        1.32054626057643
H           -9.03656411313990        4.26755674565458        1.16971269055178
H           -7.81191341964987        5.81828417353309       -0.31181859037992
H           -5.90967425138085        4.98924924678846       -1.65083294165689
H           -5.24166143151963        2.62575440805557       -1.51972898147501
H           -8.67256199204617        0.75840954255791       -1.32130969887806
H          -10.43917242039760       -0.94515321849085       -1.14912658041724
H          -10.14460213781028       -2.89264881266502        0.34058913794849
H           -8.07170225351414       -3.12233548351320        1.66312664164111
H           -6.31012672284381       -1.41151890712133        1.50859578724429
H           -5.35303129016622       -1.46247718826840       -1.02554028667827
H           -2.99720428566726       -2.08314159986138       -1.05094434571234
H           -0.21474076075309        1.33816997815758       -0.33246684608453
H            2.17094388168177        0.78107889078564       -0.35841012927073
H            5.08052725610567       -2.45322579076658       -1.69611079170203
H            7.20340118309387       -1.20404953397518       -1.84851700918131
