  47
        -78.80750143
 C          7.6437675679        0.6680245978       -0.9700004114
 N          6.2116914891        0.6275841147       -0.8793483376
 C          5.2948998038        1.2730500071       -1.6558915218
 N          4.0604348808        1.0393241516       -1.3317567553
 C          4.1236402644        0.1791735506       -0.2642250275
 C          3.1813032119       -0.4612763265        0.5533241066
 C          1.7376256740       -0.3277605130        0.4129829219
 C          1.1811506265        0.4630106831       -0.5941837282
 C         -0.1887462827        0.5702477339       -0.7147468287
 C         -1.0284712772       -0.1074627895        0.1668737235
 N         -2.4285583517       -0.0019043459        0.0382710103
 C         -3.2028535062       -1.1323998471       -0.2341542258
 C         -2.6397828560       -2.3838770807       -0.4516012860
 C         -3.4378802553       -3.4850998774       -0.7216019313
 C         -4.8097552491       -3.3534009091       -0.7910096877
 C         -5.3853948319       -2.1043581765       -0.6105323368
 C         -4.5940512884       -1.0028937799       -0.3434653353
 O         -5.2346088591        0.2041759704       -0.2122518546
 C         -4.4593356803        1.3065045114        0.0493643300
 C         -5.1176733792        2.5135554227        0.1919873122
 C         -4.4082486865        3.6673714174        0.4911723431
 C         -3.0409738995        3.5980257363        0.6643611626
 C         -2.3753875777        2.3901949357        0.5199050837
 C         -3.0666505848        1.2316413178        0.1877276725
 C         -0.4757364038       -0.8941248585        1.1765637081
 C          0.8921790664       -1.0028637224        1.2967228050
 N          3.6439152327       -1.2518848468        1.5266442186
 C          4.9417253243       -1.4127945296        1.6955556327
 N          5.9266999159       -0.8731290961        0.9964306112
 C          5.4851862701       -0.0837406605        0.0263283416
 H          8.0422495958        0.0222447417       -0.1894640942
 H          7.9757147536        0.3088034197       -1.9456973243
 H          8.0082471799        1.6861460730       -0.8222394503
 H          5.5879952730        1.9154730880       -2.4639507514
 H          1.8333086710        0.9807829762       -1.2798035010
 H         -0.6216847366        1.1733575764       -1.4994437678
 H         -1.5678664696       -2.4986651247       -0.4177476650
 H         -2.9725212865       -4.4458368517       -0.8800095982
 H         -5.4355063210       -4.2077969192       -0.9953287009
 H         -6.4520448483       -1.9616320863       -0.6789204293
 H         -6.1889994011        2.5278073692        0.0701989485
 H         -4.9301108567        4.6053551585        0.5971361550
 H         -2.4769060903        4.4826124819        0.9174599255
 H         -1.3089065164        2.3474866256        0.6754010095
 H         -1.1298638011       -1.4099326669        1.8643344903
 H          1.3357365860       -1.6029210241        2.0753318202
 H          5.2384640898       -2.0676199870        2.5041740020
  47
        -78.80739218
 C          7.5876364504       -1.2464419865        0.7575800258
 N          6.1630048395       -1.0720758512        0.7283784320
 C          5.2114229447       -1.7555820131        1.4266106034
 N          3.9945414175       -1.3767472253        1.1834283401
 C          4.1078903707       -0.3690151037        0.2586279420
 C          3.2045460469        0.4506976751       -0.4333104776
 C          1.7564209704        0.3812597707       -0.2958750261
 C          0.9437578500        1.1532699722       -1.1295284352
 C         -0.4284369802        1.0768345985       -1.0354376936
 C         -1.0190488436        0.2311920891       -0.0970245862
 N         -2.4221646556        0.1336698488       -0.0117360115
 C         -3.0629770504       -1.0867796568       -0.2440199152
 C         -2.3695920464       -2.2348838274       -0.6074522457
 C         -3.0374976724       -3.4297252989       -0.8279689168
 C         -4.4101112409       -3.4965152955       -0.7028643549
 C         -5.1213008664       -2.3510291101       -0.3779889023
 C         -4.4601672025       -1.1567457598       -0.1592710407
 O         -5.2379535071       -0.0609882612        0.1204501471
 C         -4.5953479380        1.1334325050        0.3309603807
 C         -5.3903433814        2.2280094637        0.6153971480
 C         -4.8150114632        3.4626305876        0.8768876178
 C         -3.4404776631        3.5853004004        0.8727588906
 C         -2.6387785845        2.4910517946        0.5854492165
 C         -3.2000157034        1.2561785352        0.2839621764
 C         -0.2111326011       -0.5267657482        0.7489834491
 C          1.1624933699       -0.4576542491        0.6490377997
 N          3.7108463824        1.3438924637       -1.2889705349
 C          5.0147899648        1.4349781132       -1.4637644955
 N          5.9658587580        0.7207608314       -0.8844517373
 C          5.4802918323       -0.1720182949       -0.0319929637
 H          8.0241174284       -0.5108806934        0.0839067938
 H          7.9716725691       -1.0909786322        1.7673919327
 H          7.8571283991       -2.2505869406        0.4243544094
 H          5.4660706585       -2.5374852727        2.1162757766
 H          1.4156121369        1.7957238714       -1.8560235442
 H         -1.0562136221        1.6590448912       -1.6941480516
 H         -1.2985571737       -2.1955110000       -0.7274136091
 H         -2.4704724959       -4.3059830442       -1.1023265414
 H         -4.9339498736       -4.4248166063       -0.8675755155
 H         -6.1963511706       -2.3611331303       -0.2949344002
 H         -6.4597779807        2.0907939582        0.6322963183
 H         -5.4434199334        4.3121765458        1.0928749587
 H         -2.9761035316        4.5333907546        1.0965910376
 H         -1.5656677241        2.5980845737        0.6034252263
 H         -0.6722461068       -1.1680699857        1.4858645077
 H          1.7888538459       -1.0480017751        1.2990128948
 H          5.3486894896        2.1836803040       -2.1700255352
  47
        -78.80703581
 C          7.6171115358       -0.2502484933       -1.2745977236
 N          6.1882082605       -0.2042169629       -1.1514488264
 C          5.2531709273       -0.2426285962       -2.1420629680
 N          4.0261123792       -0.1928779903       -1.7237248350
 C          4.1143552351       -0.1166759726       -0.3563810651
 C          3.1892061831       -0.0355412123        0.6944611960
 C          1.7430230645       -0.0130063002        0.5207179727
 C          1.1711987596       -0.0572249303       -0.7522973117
 C         -0.2000714543       -0.0346122906       -0.8977088455
 C         -1.0257912256        0.0321761077        0.2225749740
 N         -2.4275181186        0.0564863454        0.0693969433
 C         -3.0972130224       -1.0227142618       -0.5113326126
 C         -2.4390020813       -2.1834538941       -0.8982370215
 C         -3.1354957388       -3.2386483191       -1.4675075004
 C         -4.5009455439       -3.1570898454       -1.6496546769
 C         -5.1776914856       -2.0179140399       -1.2393392628
 C         -4.4885858018       -0.9642171946       -0.6688055777
 O         -5.2320609261        0.1141904624       -0.2576983447
 C         -4.5603191030        1.1617813777        0.3222592874
 C         -5.3194957744        2.2433426626        0.7277810638
 C         -4.7103685260        3.3547553507        1.2916983619
 C         -3.3374465211        3.3808202512        1.4278510596
 C         -2.5713614049        2.2976364557        1.0246855731
 C         -3.1686706445        1.1636580628        0.4884198919
 C         -0.4583117131        0.0752983460        1.4950981547
 C          0.9115112450        0.0531571785        1.6412205637
 N          3.6718477215        0.0252527580        1.9390585023
 C          4.9735623132        0.0097554238        2.1503970472
 N          5.9436641394       -0.0616264243        1.2537916617
 C          5.4826112292       -0.1245611136        0.0119275577
 H          7.8914264377       -0.1710735449       -2.3251181345
 H          8.0589518866        0.5745268052       -0.7139513237
 H          8.0004570129       -1.1877694470       -0.8664642333
 H          5.5270348150       -0.3060430395       -3.1779941014
 H          1.8129175201       -0.1015154929       -1.6180329903
 H         -0.6451496749       -0.0608171108       -1.8816552804
 H         -1.3744647355       -2.2673683066       -0.7460154215
 H         -2.5972840551       -4.1263811040       -1.7623843005
 H         -5.0466175501       -3.9732165433       -2.0962875625
 H         -6.2467485803       -1.9288304994       -1.3486258142
 H         -6.3877504651        2.1978174151        0.5879712271
 H         -5.3112163513        4.1926235661        1.6084062035
 H         -2.8462655346        4.2459838376        1.8461038165
 H         -1.4978447783        2.3389425515        1.1208199935
 H         -1.1023177973        0.1183690299        2.3613440679
 H          1.3666761509        0.0789403713        2.6186012542
 H          5.2878690059        0.0620955956        3.1844127788
