70
 energy: -121.491985802374 gnorm: 0.000060006791 xtb: 6.7.1 (edcfbbe)
O           -6.52090832562035       -0.94943142303364        1.12938550971077
N           -5.84681035000197       -1.64704563022822        0.39275840402347
O           -6.29920254439162       -2.54946853067167       -0.28901029666154
C           -4.43923930780904       -1.39147908456791        0.32444662762025
C           -3.88898797697881       -0.36421471257481        1.08722494884761
C           -2.53745936012783       -0.11207622507757        1.01032179636389
C           -1.71860019950212       -0.87679535258385        0.17216760688807
C           -0.27575650158662       -0.62320216730138        0.07594959178602
C            0.27012155630789        0.62651720561958        0.08245505172266
C            1.71376446553444        0.87563432549882        0.18303257207588
C            2.52787418907093        0.10551042078473        1.02075898441451
C            3.88047411646351        0.35117508724389        1.09979862806988
C            4.43628054068592        1.37748026369509        0.33979057169936
N            5.84523565288990        1.62545107204993        0.40922411138390
O            6.30221803446272        2.52867036504705       -0.26832661688275
O            6.51570538046346        0.92077188972903        1.14237665912376
C            3.63848839568606        2.16907579697871       -0.48161524618498
C            2.28570674576610        1.92043039547463       -0.55119689077810
N           -0.53326479049633        1.75773209305038       -0.07909786986047
C           -0.51784311536060        2.87229661856924        0.74487430592257
C            0.25719260969102        3.12755573497148        1.86601781305587
C            0.05138532689783        4.32196433039544        2.53179435538544
C           -0.90674696938933        5.23737636165328        2.10257622194935
C           -1.69295652094992        4.97870881154277        0.99630838890800
C           -1.50229569175388        3.78664348701128        0.30993635450083
C           -2.12902789184003        3.19757945224297       -0.84325101270429
C           -3.13014045998762        3.62469279804793       -1.70583821119230
C           -3.48377701423166        2.81022166805266       -2.76372741761846
C           -2.83876772131320        1.59447589063538       -2.97811816998738
C           -1.84125785849403        1.14873498268759       -2.13144647428372
C           -1.50455714050152        1.94778136757012       -1.04964872301760
N            0.53085750838020       -1.75132246928407       -0.09403650543812
C            0.52186496364179       -2.87016652066805        0.72399315119394
C           -0.25115314599735       -3.13524161475594        1.84425186797623
C           -0.03852759889564       -4.33190886537242        2.50378400764718
C            0.92410746913726       -5.24005184984877        2.06917016903602
C            1.70821225207773       -4.97158084356380        0.96375073602518
C            1.51098190912082       -3.77693515905618        0.28373323942138
C            2.13442340302810       -3.17808260591509       -0.86617537265290
C            3.13857457375410       -3.59422277161710       -1.73061137508233
C            3.48841581956188       -2.77123893889573       -2.78314892346042
C            2.83658657045734       -1.55794200952059       -2.99076469592620
C            1.83583552528817       -1.12310376793141       -2.14228170516749
C            1.50310467097222       -1.93057894297368       -1.06550369370836
C           -2.28521578417487       -1.92217139087482       -0.56561167967386
C           -3.63687799813069       -2.17714073644558       -0.49826493779999
H           -4.53107787827549        0.21812230943967        1.72999306697144
H           -2.10881822795312        0.66796239288482        1.61952649793963
H            2.09475469241866       -0.67406794545204        1.62744372843859
H            4.51913698473154       -0.23569189225408        1.74185660866187
H            4.09328504350577        2.96272972676674       -1.05420750855775
H            1.66420024485970        2.52705258359272       -1.19234325904055
H            0.99645443993763        2.42189378004955        2.21250357216869
H            0.64468004366543        4.54752361580524        3.40554878432358
H           -1.03781753734442        6.15938730429883        2.64922591280848
H           -2.44272681267090        5.68399545144089        0.67156078782336
H           -3.61534017307899        4.57661357911589       -1.55260328137595
H           -4.26294081261716        3.12173870497410       -3.44346324758931
H           -3.12149308908744        0.98746366029698       -3.82539090576582
H           -1.34113942779197        0.21135857439268       -2.31843099896878
H           -0.99391013712646       -2.43520147366197        2.19471441327344
H           -0.62982538816945       -4.56500149163047        3.37691079943857
H            1.06047089667606       -6.16413452298067        2.61101361545916
H            2.46141627465843       -5.67126917467001        0.63486577014804
H            3.62919900378680       -4.54420780736276       -1.58273177300909
H            4.27004154943678       -3.07401399334507       -3.46401187598655
H            3.11663168642759       -0.94421137919238       -3.83407980549540
H            1.33037928241604       -0.18752441934590       -2.32394637149655
H           -1.66029179030033       -2.52446107572406       -1.20751670136407
H           -4.08733791247999       -2.97152557837757       -1.07327279606938
