70
 energy: -121.448495287541 gnorm: 0.000057990633 xtb: 6.7.1 (edcfbbe)
O           -6.40539923289191       -0.52584673916066        1.70960623852462
N           -5.81020142700141       -1.35040870790165        1.00891136398422
O           -6.37543435965498       -2.31024676660743        0.47569505415443
C           -4.42820018011672       -1.18826080580471        0.80765690390913
C           -3.74996193688057       -0.12543420406933        1.41888520197050
C           -2.40633830394184        0.03727590623322        1.21468454318511
C           -1.68289983968538       -0.85265324269257        0.38919382966154
C           -0.29505443999745       -0.64912513574014        0.09889620766938
C            0.29726677278195        0.65268578739095        0.10396851795491
C            1.68501052572189        0.85362870700419        0.39668616579080
C            2.40728247836979       -0.04214642248495        1.21683783636591
C            3.75081213134658        0.11856275170269        1.42332813440963
C            4.43011362822462        1.18496598314938        0.81957590351221
N            5.81201469782183        1.34507377209471        1.02311389258431
O            6.37827899402410        2.30795795095362        0.49651238219830
O            6.40611004836698        0.51578768791636        1.71916463506652
C            3.72797032606924        2.09805515633145        0.01943522342780
C            2.38456845039306        1.94039058871536       -0.17959098585731
N           -0.49447006667718        1.74103687328871       -0.18487674851206
C           -0.51824073675371        2.94550454958910        0.51382433930263
C            0.21775875146593        3.33954495082103        1.62209700122631
C           -0.04697137626472        4.58654684223118        2.16214177323959
C           -1.02150970879064        5.41948727375584        1.62190044582632
C           -1.77718543164249        5.01885300694792        0.53187161607216
C           -1.52816725528910        3.77424287946652       -0.02259985107060
C           -2.13219073241168        3.04118045472996       -1.10930523863231
C           -3.13864937986451        3.34366397552828       -2.01081041959412
C           -3.46892567700753        2.40171782200777       -2.97206478143094
C           -2.79054389360907        1.18998414749924       -3.04999543283678
C           -1.77846968175805        0.87165862323238       -2.16116325331785
C           -1.47124531041492        1.79484037104536       -1.17199355729194
N            0.49721569508494       -1.73502612196478       -0.19774708266721
C            0.52116070079715       -2.94467711126156        0.49185073966259
C           -0.21453324928970       -3.34687790752561        1.59737990005052
C            0.05006612977238       -4.59802119595131        2.12781737609745
C            1.02429483819255       -5.42701262205762        1.58095817377371
C            1.77987994506438       -5.01820325553599        0.49390349411977
C            1.53095713414130       -3.76936427216455       -0.05100627976587
C            2.13490252458892       -3.02803850926418       -1.13213303279006
C            3.14127957044258       -3.32362460094970       -2.03601523640949
C            3.47148204724654       -2.37435714644293       -2.99007666330060
C            2.79314320952572       -1.16203203408413       -3.05864931202084
C            1.78110257020593       -0.85053946174439       -2.16736276354052
C            1.47394688284803       -1.78125733416679       -1.18526261229363
C           -2.38146474239355       -1.93587838663011       -0.19491403633944
C           -3.72490644660176       -2.09563525160779        0.00204143404715
H           -4.30609912409618        0.54508930551096        2.05586762316641
H           -1.88886676098974        0.83374258704011        1.72596431590273
H            1.88889845651315       -0.84165095312496        1.72242122230862
H            4.30605527779878       -0.55632578921962        2.05645879236317
H            4.27189436150118        2.91209697009142       -0.43452686603721
H            1.85633925139631        2.63516673364093       -0.81457232981288
H            0.97249128092570        2.70337904273278        2.05604528406028
H            0.51635517968914        4.91636000543108        3.02168670966461
H           -1.19573414358315        6.38764713650673        2.06620080702278
H           -2.54880262372729        5.65534594067924        0.12811526511397
H           -3.65002713126163        4.29239275433501       -1.96669658673318
H           -4.25511521277477        2.61459412392888       -3.68041577061969
H           -3.05349471790978        0.48361239742647       -3.82241983513776
H           -1.25092831297729       -0.06408652377929       -2.24987707566652
H           -0.96879969150498       -2.71363401574929        2.03642365975108
H           -0.51307267301705       -4.93429940890890        2.98498048706362
H            1.19836734988087       -6.39861398766771        2.01773564234915
H            2.55135604312213       -5.65169679044681        0.08519263268830
H            3.65264358148938       -4.27267417887041       -1.99922491598216
H            4.25761732855569       -2.58180198226200       -3.70009820808633
H            3.05610445263801       -0.44970230335995       -3.82557599807904
H            1.25349741106585        0.08581885686239       -2.24886447888115
H           -1.85239522565546       -2.62611611190349       -0.83413623019710
H           -4.26797981791581       -2.90701834966883       -0.45768486857770
