70
 energy: -121.491958687822 gnorm: 0.000051267946 xtb: 6.7.1 (edcfbbe)
O           -4.26640458746503       -5.02092720704401       -1.14284126295683
N           -3.28341435699312       -5.10642713906414       -0.42870319659696
O           -3.00998675836881       -6.09063731760167        0.23487451951341
C           -2.39690061782385       -3.98324641709252       -0.36487701636321
C           -2.66641885702735       -2.84991823932683       -1.12822622207156
C           -1.82043891899949       -1.76594912683425       -1.05392420966967
C           -0.69942047695850       -1.79558101730765       -0.21714374903779
C            0.21168926114291       -0.64815034147013       -0.12050021002140
C           -0.21167599191659        0.64817654721771       -0.12056110366675
C            0.69942357194004        1.79560443987162       -0.21732063929499
C            0.42988304155520        2.95364567253755        0.52047491849737
C            1.27356734272273        4.04011277449653        0.45495867689717
C            2.39689928934055        3.98325883001360       -0.36525342820247
N            3.28339945800987        5.10644487809400       -0.42919186943925
O            4.26644257170095        5.02083890764815       -1.14325661904808
O            3.00998655439805        6.09070448750300        0.23430851648461
C            2.66643239951915        2.84985383351005       -1.12848298120701
C            1.82045121689824        1.76589178852020       -1.05408524480888
N           -1.56424709903979        0.95671361032503        0.04438216184282
C           -2.41338065023536        0.44949423236880        1.01546315076653
C           -2.13057308365514       -0.37331265436863        2.09487916551089
C           -3.17061453379920       -0.70898581084920        2.94124246547176
C           -4.46208618314253       -0.23207144570933        2.72967633724053
C           -4.74238596056017        0.61400873933812        1.67462440469824
C           -3.71236868149668        0.96497899971920        0.81169115120317
C           -3.63995110215531        1.82232056365954       -0.34118658962402
C           -4.57852825077098        2.58247862667792       -1.02647932868714
C           -4.16772966641765        3.29694695710879       -2.13535449906515
C           -2.84407311564807        3.25365288342209       -2.56697311454678
C           -1.89247635503571        2.50271594467184       -1.90155731101487
C           -2.29742518913564        1.79727990176629       -0.77854981881789
N            1.56425809622949       -0.95668371052840        0.04446104542852
C            2.41340287460362       -0.44938688504601        1.01549242884517
C            2.13061993077005        0.37355376751220        2.09481303184807
C            3.17066859439511        0.70928581952368        2.94114405509987
C            4.46212335997503        0.23229881578766        2.72964136421467
C            4.74239887259004       -0.61390916003244        1.67468548576229
C            3.71237468270263       -0.96493751558797        0.81178435658988
C            3.63993489919691       -1.82240079534292       -0.34100123969340
C            4.57849083531533       -2.58266716263404       -1.02620175384923
C            4.16767650359984       -3.29724502577317       -2.13500098368677
C            2.84402502299783       -3.25395079420647       -2.56663613327755
C            1.89245030747813       -2.50290518148365       -1.90131179230427
C            2.29741351207871       -1.79736189189941       -0.77837694455429
C           -0.42989903266384       -2.95354397133798        0.52078008419746
C           -1.27358278499465       -4.04001746614335        0.45536024992320
H           -3.53438834410419       -2.83935490838007       -1.76935372630699
H           -2.01665507644551       -0.89815251814929       -1.66368319652297
H           -0.43806322930868        2.99044759326759        1.16131027291364
H            1.08418281817870        4.93324540612949        1.03026410394787
H            3.53440071584292        2.83923660352243       -1.76961054643117
H            2.01667096370427        0.89803710247808       -1.66375995483341
H           -1.13274817391141       -0.73913732993444        2.28004016198230
H           -2.97581498972885       -1.35292661332886        3.78603546827073
H           -5.25005947606971       -0.52155557947067        3.40903238426313
H           -5.73866588176383        1.00072384365486        1.52325632089274
H           -5.60675645587567        2.60862519851691       -0.69917388226464
H           -4.88151411059836        3.89518935957422       -2.68193665932130
H           -2.55455070981108        3.81578332293831       -3.44248690914039
H           -0.87167578517920        2.46968351153656       -2.24996739496888
H            1.13280911423291        0.73944099551815        2.27992536388752
H            2.97588855743559        1.35333520883795        3.78585862087340
H            5.25010160493957        0.52182839348969        3.40897222459955
H            5.73866499123547       -1.00067946526597        1.52336839685652
H            5.60671404933831       -2.60881213628805       -0.69888016251956
H            4.88144384377475       -3.89557648912014       -2.68150815570991
H            2.55448646724722       -3.81616893685062       -3.44208885912531
H            0.87165408627663       -2.46987653870679       -2.24973444889975
H            0.43804492479250       -2.99028740794685        1.16162243824040
H           -1.08420484906957       -4.93309336060769        1.03075583080682
