70
 energy: -121.448506383482 gnorm: 0.000035920712 xtb: 6.7.1 (edcfbbe)
O           -6.31005576511381       -1.02592272115826        1.77406407990482
N           -5.66360882396688       -1.80781197938221        1.07012679591229
O           -6.15882733798433       -2.81711031422479        0.55943181371497
C           -4.30361913649212       -1.53615780065357        0.83854486941155
C           -3.70030470529140       -0.41947488870882        1.43199540633004
C           -2.37833742628733       -0.15154251203107        1.19985069671329
C           -1.60243846502230       -0.98613620952846        0.36384999384828
C           -0.24092363898033       -0.67285322080770        0.05100461068432
C            0.24187201405720        0.67526678717693        0.05123887657699
C            1.60530261576743        0.98827811691504        0.35574103944618
C            2.38780549632793        0.15118995800498        1.18307722920184
C            3.71158300679822        0.41836267809999        1.40549957711438
C            4.31022415087698        1.53684189584005        0.81068899992933
N            5.67213597838600        1.80750447122242        1.03182480327794
O            6.16351075194596        2.81784616221443        0.51947664851474
O            6.32406702898185        1.02369909023243        1.72853611378472
C            3.54675570271642        2.39190463511765        0.00262772673633
C            2.22262106114390        2.12797004448529       -0.21243581974769
N           -0.63650013709592        1.68950544791684       -0.25391092903050
C           -0.76621738986123        2.89798984450614        0.42600904502288
C           -0.07518040304851        3.36815725760983        1.53347882619163
C           -0.44630777890964        4.59723352621751        2.05160578506188
C           -1.48132085543827        5.33863224063650        1.49076948100960
C           -2.19241193821489        4.85991521086189        0.40233597983516
C           -1.83735475850218        3.63143340521107       -0.12990292836775
C           -2.37157297806922        2.83345314532964       -1.20726918411362
C           -3.39499150499011        3.03640912100339       -2.11761732293803
C           -3.64119344804015        2.05452384286605       -3.06395498733071
C           -2.86384717107466        0.90253014867408       -3.11888009388892
C           -1.83324424281050        0.68426264103128       -2.22111218478105
C           -1.60891263763914        1.64571280885734       -1.24624421379188
N            0.63523212924552       -1.68664803176909       -0.26169800365665
C            0.76815131718576       -2.89693919448776        0.41449079445433
C            0.08236196045873       -3.37010960474828        1.52394640501092
C            0.45564483594778       -4.60075994766376        2.03676485501837
C            1.48786485677097       -5.34075321626043        1.46897918002046
C            2.19404921463012       -4.85894114707788        0.37872217072994
C            1.83667507480273       -3.62890476389599       -0.14835469722943
C            2.36615165350978       -2.82792618968935       -1.22582839565965
C            3.38604473848049       -3.02807557766932       -2.14073694736895
C            3.62829079633590       -2.04348915964535       -3.08527588555772
C            2.85023142738520       -0.89170635964994       -3.13410823143104
C            1.82309751364276       -0.67622592302714       -2.23170115664604
C            1.60310123359424       -1.64025324815433       -1.25838939637123
C           -2.22436476768928       -2.12372063012793       -0.20346998861153
C           -3.54674312591265       -2.38840517495000        0.02134936463797
H           -4.29496231330559        0.20806873520414        2.07787608837145
H           -1.91595673963664        0.68678356456527        1.69682338767190
H            1.92936118641061       -0.68867987331220        1.68108788052895
H            4.31138676907215       -0.21128773536542        2.04453403414234
H            4.02909990122476        3.24753640018050       -0.44437349120269
H            1.64821758568453        2.77936616761452       -0.85321888781516
H            0.72535669726031        2.80285183875889        1.98319024543010
H            0.08056556083795        4.98550998718498        2.90988518893147
H           -1.73863284921164        6.29598781114034        1.91777279606442
H           -3.01031245619399        5.42434007084755       -0.01719544931967
H           -3.98333391676316        3.94015905312225       -2.09138067667040
H           -4.43893160333883        2.18925284896524       -3.77856292483559
H           -3.06288581609651        0.16395634602814       -3.88019003793100
H           -1.22943909015881       -0.20568191698906       -2.29287051822077
H           -0.71584684246129       -2.80594671688455        1.97918314524161
H           -0.06726800206461       -4.99136438438450        2.89640976535601
H            1.74695198181347       -6.29938901048015        1.89200567954979
H            3.01002574510250       -5.42217307114536       -0.04613138714243
H            3.97482773841300       -3.93166328855485       -2.11918112774462
H            4.42352206986111       -2.17582207745127       -3.80312275541286
H            3.04608743157142       -0.15093418475598       -3.89410797231682
H            1.21865681131715        0.21365035858849       -2.29880085168037
H           -1.65509933713801       -2.77284749736092       -0.85110418691098
H           -4.03270826605202       -3.24246537055911       -0.42473286369180
