  116
       -176.36039878
 N          0.0441761669        0.1988116955       -0.8930770765
 C          0.0234173704       -0.9327892479       -0.6393253337
 C          0.0075506027       -2.2810315104       -0.3296401497
 C         -1.2318340856       -3.0128345824       -0.2684232367
 C         -2.5094441864       -2.3460706338       -0.1754297674
 C         -2.6492748747       -1.1425407296        0.5386547258
 C         -3.8508594590       -0.4853041627        0.5977859675
 C         -4.9802201859       -1.0043399960       -0.0514559566
 N         -6.1936459616       -0.3198671522       -0.0172449910
 C         -7.3939748340       -1.0245603913        0.0499989265
 C         -7.4817834725       -2.2136883199        0.7799761255
 C         -8.6691382163       -2.9079104636        0.8414048703
 C         -9.8131471809       -2.4428185361        0.1888387033
 C        -11.0785995751       -3.1784723930        0.2668541685
 C        -11.0975717472       -4.5724365535        0.2252444685
 C        -12.2920540379       -5.2632357371        0.2960882580
 C        -13.4892492792       -4.5767584584        0.4166198167
 C        -13.4832298663       -3.1922138791        0.4625654069
 C        -12.2908211783       -2.4987122938        0.3852072576
 C         -9.7177825843       -1.2543696480       -0.5388794968
 C         -8.5324957927       -0.5583998920       -0.6145265789
 C         -6.2021350758        1.0751318484       -0.0504807486
 C         -7.1489531890        1.7991032052        0.6793901700
 C         -7.1522667140        3.1757099167        0.6430946824
 C         -6.2101933250        3.8803458346       -0.1090642409
 C         -6.2138813623        5.3462284684       -0.1385145494
 C         -7.4142168669        6.0553123901       -0.1737270848
 C         -7.4160132904        7.4367000506       -0.2036177090
 C         -6.2202946712        8.1359285584       -0.1925888481
 C         -5.0215500423        7.4427578758       -0.1548562991
 C         -5.0165176588        6.0612211274       -0.1312321297
 C         -5.2633801070        3.1497759062       -0.8305264702
 C         -5.2579011981        1.7732440807       -0.8087311645
 C         -4.8607888736       -2.2200198609       -0.7404862870
 C         -3.6562639245       -2.8735667133       -0.7964935416
 C         -1.1431651104       -4.3954412449       -0.2638873196
 N         -0.0002213218       -5.0623356287       -0.2525130503
 C          1.1510765697       -4.3978345278       -0.2522693331
 C          1.2364105894       -3.0189664343       -0.2502492565
 C          2.5179545678       -2.3481120841       -0.1494521235
 C          3.6498323171       -2.8377695952       -0.8182238566
 C          4.8537227772       -2.1798171694       -0.7523798226
 C          4.9796288845       -1.0036174679       -0.0029420629
 N          6.1916187963       -0.3141166630        0.0434311133
 C          7.3957029623       -1.0168953220        0.0497245422
 C          8.5159640103       -0.5180359108       -0.6207000165
 C          9.7039874138       -1.2142231362       -0.6068081647
 C          9.8184579648       -2.4339368479        0.0628817191
 C         11.0860830607       -3.1712537803        0.0736906941
 C         12.3000559899       -2.4970078164        0.2003197494
 C         13.4940611232       -3.1923066347        0.2148287685
 C         13.4988646432       -4.5723993095        0.0967426837
 C         12.2994427002       -5.2531393629       -0.0329103171
 C         11.1036788901       -4.5607747263       -0.0412063360
 C          8.6929641257       -2.9304762425        0.7231359834
 C          7.5034466956       -2.2364908769        0.7234887922
 C          6.1942151866        1.0811712195        0.0763376689
 C          7.1557061193        1.7730139006        0.8173673493
 C          7.1557437077        3.1500906556        0.8454297529
 C          6.1955365976        3.8858984084        0.1488164721
 C          6.1970896889        5.3521333275        0.1862441557
 C          7.3955966383        6.0639980317        0.1535427944
 C          7.3958808204        7.4454578308        0.1863738823
 C          6.2003725742        8.1413123302        0.2582343485
 C          5.0033821871        7.4450821442        0.2936882681
 C          4.9999195839        6.0637615605        0.2551416858
 C          5.2335688765        3.1872320362       -0.5831119335
 C          5.2313720407        1.8107714299       -0.6259098799
 C          3.8634417233       -0.5256824656        0.6946516031
 C          2.6618137656       -1.1851231664        0.6215349670
 H         -1.7991697743       -0.7357085738        1.0636716695
 H         -3.9393371587        0.4328161460        1.1598457526
 H         -6.6130435988       -2.5726038189        1.3119640540
 H         -8.7243229784       -3.8097431356        1.4326993213
 H        -10.1700021002       -5.1144877177        0.1121309101
 H        -12.2908424696       -6.3428396851        0.2553556301
 H        -14.4220083286       -5.1178049523        0.4744172255
 H        -14.4132415553       -2.6513534973        0.5619200207
 H        -12.2929773949       -1.4197888350        0.4410683847
 H        -10.5797498500       -0.8911195469       -1.0784593138
 H         -8.4696135002        0.3453805735       -1.2027406751
 H         -7.8681854834        1.2699750129        1.2875067462
 H         -7.8756611563        3.7182584447        1.2334565447
 H         -8.3503778314        5.5167212981       -0.2024232020
 H         -8.3541583617        7.9716272932       -0.2387628066
 H         -6.2227546398        9.2156424693       -0.2132936736
 H         -4.0859580600        7.9827708031       -0.1415425026
 H         -4.0783523753        5.5282259000       -0.0827898669
 H         -4.5406451281        3.6700609885       -1.4405968300
 H         -4.5307222320        1.2241727527       -1.3880648265
 H         -5.7210391706       -2.6206566192       -1.2572635287
 H         -3.5759094517       -3.7863744136       -1.3673911389
 H         -2.0341865437       -5.0049856007       -0.1978637560
 H          2.0403579766       -5.0095415916       -0.1872723044
 H          3.5610329755       -3.7226652098       -1.4305825579
 H          5.7058156216       -2.5490670964       -1.3046490217
 H          8.4375999284        0.4121272838       -1.1642075625
 H         10.5519204346       -0.8245621224       -1.1502423253
 H         12.3031215983       -1.4224261181        0.3120742409
 H         14.4260473789       -2.6562325582        0.3213801593
 H         14.4326228172       -5.1147632803        0.1058577169
 H         12.2974175753       -6.3290866521       -0.1304814930
 H         10.1735037471       -5.0968027133       -0.1616303135
 H          8.7641758531       -3.8586408545        1.2704065343
 H          6.6485024153       -2.6222380110        1.2590604654
 H          7.8906659291        1.2184431641        1.3825132505
 H          7.8917911786        3.6667134611        1.4433826153
 H          8.3312128509        5.5289721602        0.0781632044
 H          8.3326135269        7.9829165429        0.1533358308
 H          6.2015757983        9.2208999902        0.2859596147
 H          4.0680263250        7.9823588636        0.3534247364
 H          4.0635050233        5.5275465341        0.3016489834
 H          4.4951165323        3.7329663828       -1.1506478820
 H          4.4903364962        1.2880647644       -1.2120288777
 H          3.9580853799        0.3631626170        1.3008532712
 H          1.8176680826       -0.8098099122        1.1790472284
