116
 energy: -176.363892088636 gnorm: 0.000085418593 xtb: 6.7.1 (edcfbbe)
N            0.02019364706017        0.18358388091716       -0.95190818225335
C            0.00956316701654       -0.94851993556382       -0.69416279852126
C            0.00151821975906       -2.28545735235203       -0.35382758183324
C           -1.23797531509116       -3.02226279523297       -0.28086247749768
C           -2.51547178733185       -2.35210612508489       -0.17854940755180
C           -2.64708220449120       -1.15656066680259        0.54613050190820
C           -3.84676414764038       -0.49354790597838        0.61283036470841
C           -4.97713704635985       -1.00137466754609       -0.03897320876532
N           -6.18932679734280       -0.31180667987750        0.00341636188881
C           -7.39093773453714       -1.01635276127651        0.06881743965502
C           -7.47856151518949       -2.20321269614964        0.80056314169782
C           -8.66437611213083       -2.90181734746397        0.85703764272201
C           -9.80501316781140       -2.44142709545808        0.19780973476504
C          -11.06765582550691       -3.18563562389227        0.26599536286047
C          -11.07680421863003       -4.57853124623752        0.21061209619836
C          -12.26701273237201       -5.27813220195500        0.27207356272873
C          -13.46862172124504       -4.60049815095998        0.39565018503170
C          -13.47198444542271       -3.21672393927786        0.45458413672482
C          -12.28352987210646       -2.51466959377329        0.38763753928742
C           -9.71141828736353       -1.25325721578835       -0.52818240931692
C           -8.52729488506985       -0.55303541606836       -0.59889126706296
C           -6.19461898912053        1.08394602506716       -0.03046705331450
C           -7.13936902066335        1.80949681952838        0.69877860326146
C           -7.14215619396168        3.18674331294293        0.65930885460312
C           -6.20060317597042        3.88806125565321       -0.09472564998874
C           -6.20352268238665        5.35501715867310       -0.12899529246410
C           -7.40281666272982        6.06363296076307       -0.18070501356006
C           -7.40367329494540        7.44517009872611       -0.21666055731805
C           -6.20789877549516        8.14368576443282       -0.19559201194621
C           -5.01005784552093        7.45042392497589       -0.14134120329764
C           -5.00621209688865        6.06876793486042       -0.11129447970843
C           -5.25508110295817        3.15628414480549       -0.81470224441904
C           -5.25111478481721        1.77914067082956       -0.79063635386125
C           -4.86503189988125       -2.20896724160260       -0.73926352770778
C           -3.66257813251729       -2.86845361265200       -0.80287847671116
C           -1.15134860656825       -4.40045113872920       -0.28078182092595
N           -0.00115814418255       -5.06207972406802       -0.26782675687061
C            1.15242447751879       -4.40123491846332       -0.27637554325259
C            1.23677126610333       -3.02454824900154       -0.27305791606871
C            2.51524566310536       -2.35231761464457       -0.16571669157914
C            3.65527542696743       -2.84729089152064       -0.81645018296325
C            4.85699076984428       -2.18575770624605       -0.74635941616038
C            4.97367914902089       -1.00107912163577       -0.00954380408351
N            6.18486241600443       -0.31089288875424        0.04316442586064
C            7.39011071272720       -1.01306614413094        0.05721200110947
C            8.51052979148659       -0.51823613138556       -0.61442997435315
C            9.69830605420968       -1.21575729294279       -0.59691421187155
C            9.81105829043616       -2.43169034777090        0.07840920103223
C           11.07684860930592       -3.17385303848312        0.08770121741112
C           12.29359477947814       -2.50440572680847        0.20838290775736
C           13.48498384197067       -3.20464629442584        0.21833755341270
C           13.48349989210887       -4.58481234635962        0.10254230743120
C           12.28092511304270       -5.26081481567807       -0.02037845702046
C           11.08794050597424       -4.56321974139208       -0.02506275093902
C            8.68667491182334       -2.92226760998142        0.74354461734920
C            7.49746334093460       -2.22690694643274        0.74003884792432
C            6.18881615162375        1.08546930238977        0.07230062718113
C            7.14096287412164        1.77677403513277        0.82451020900583
C            7.14219882792811        3.15439228766209        0.85052295788545
C            6.19218515245124        3.88936351894196        0.14057629133950
C            6.19190309286794        5.35631845352106        0.17899937345937
C            7.38918891709250        6.06974415023719        0.15453504665085
C            7.38681994806208        7.45132013616784        0.18941114467144
C            6.18976860083263        8.14484196675246        0.25496749112080
C            4.99387950868014        7.44667528759941        0.28218202047953
C            4.99327105164908        6.06526576565871        0.24175732956304
C            5.24086699719460        3.19130485156789       -0.60468857129932
C            5.23804916616854        1.81440939886898       -0.64567075540090
C            3.84923944907873       -0.51655107251055        0.66904122466781
C            2.64944754134788       -1.17925805268706        0.59186950018665
H           -1.79320770046882       -0.75703747335819        1.07073664659209
H           -3.92891291828894        0.42210883970689        1.17978989741463
H           -6.61054928605851       -2.56065855834010        1.33473889341390
H           -8.71904866396407       -3.80421109777348        1.44763462004027
H          -10.14505446083904       -5.11299308879162        0.09544437615654
H          -12.25843689142364       -6.35726705096603        0.22107063271505
H          -14.39800093614505       -5.14815351455390        0.44576117235533
H          -14.40581111684787       -2.68279524187937        0.55549587618871
H          -12.29248331920978       -1.43630031705322        0.45291624730756
H          -10.57260712612694       -0.89204987710332       -1.07048688147500
H           -8.46572844793823        0.35218339266980       -1.18499908148906
H           -7.85982393655758        1.28238693676577        1.30723317028369
H           -7.86554075606285        3.73125938980462        1.24801317375873
H           -8.33876597008997        5.52503301523036       -0.21628930207945
H           -8.34108144638110        7.98038016074369       -0.26383599013484
H           -6.20971784332120        9.22332970532245       -0.22162052207831
H           -4.07436591922114        7.99002134058964       -0.12050882014283
H           -4.06908943777095        5.53507521623868       -0.05100406317990
H           -4.53150094112643        3.67496018432866       -1.42526216264396
H           -4.52325456546238        1.22902140388717       -1.36813617439614
H           -5.72814458922184       -2.60231984977065       -1.25682358195559
H           -3.58752479218111       -3.77720218046914       -1.38108700986890
H           -2.03936503935783       -5.01278682759174       -0.20983187397526
H            2.04011618991247       -5.01387877183740       -0.20579320754166
H            3.57554898151226       -3.73961196667275       -1.41923814478155
H            5.71504029892266       -2.56071086748188       -1.28542619767722
H            8.43354494157060        0.40983110641410       -1.16169886923200
H           10.54654926639872       -0.82949214212891       -1.14232912045177
H           12.30154183038568       -1.42960004408927        0.31768334189565
H           14.41967012338802       -2.67218050334830        0.31900337241437
H           14.41510895195264       -5.13094410398836        0.10799679474858
H           12.27368337339281       -6.33696719040587       -0.11550104414157
H           10.15499574666147       -5.09559745063188       -0.14022375184876
H            8.75702469251979       -3.84709158159965        1.29660490186459
H            6.64227611378488       -2.60900326609811        1.27784635474036
H            7.86849033256715        1.22226320616147        1.39927813944288
H            7.87110242651163        3.67117036236581        1.45712916038370
H            8.32607447229684        5.53617110515888        0.08464848624762
H            8.32272654313332        7.99058011040942        0.16314317561234
H            6.18907879203410        9.22439826419347        0.28449468625125
H            4.05718042171411        7.98210987678761        0.33724477805330
H            4.05771527273471        5.52692893012766        0.28160950997515
H            4.51103077944207        3.73727099691400       -1.18316471691213
H            4.50470446667553        1.29138352457970       -1.24114852958005
H            3.93479124548083        0.38093648679442        1.26376783155455
H            1.79857635533943       -0.79727391938580        1.13437981498229
