116
 energy: -176.441332610391 gnorm: 0.000107127117 xtb: 6.7.1 (edcfbbe)
N            0.03149300188296        0.19908701819264       -0.38218343459027
C           -0.00214482309006       -0.89061128047238       -0.02416894585982
C           -0.03200736216728       -2.25639441660927        0.34454010364472
C           -1.25707479481244       -2.93462398893044        0.46787976553883
C           -2.54066045873442       -2.24124118008210        0.36517148309679
C           -2.74429354475584       -1.00624540026293        0.98099600273676
C           -3.95166261116297       -0.35340565330313        0.87237013138159
C           -4.99753836830537       -0.91224380514848        0.13433861199340
N           -6.20970795373812       -0.23979174074758        0.00163765511555
C           -7.41113616690935       -0.95606342083585       -0.04490268138024
C           -7.59448755328773       -2.08492361839189        0.75363209656602
C           -8.77933222519481       -2.78832550270746        0.70690641834064
C           -9.82388722242636       -2.38418683931670       -0.12312092407258
C          -11.08855088828734       -3.12992285305200       -0.16107144111052
C          -11.09481485209267       -4.52294512257976       -0.12765779088060
C          -12.28582282267605       -5.22339550428446       -0.16405754416826
C          -13.49151942992384       -4.54538496854050       -0.23013050779942
C          -13.49792925988804       -3.16092420788896       -0.26181236122660
C          -12.30780299455228       -2.45880055081314       -0.22975058698388
C           -9.63581913667806       -1.25168779293129       -0.91408499523912
C           -8.44889870350244       -0.55074633833998       -0.88378902133425
C           -6.22820595553389        1.15720570691932       -0.10118472619812
C           -7.24949928036732        1.89811608227262        0.49237047387474
C           -7.27220749431531        3.27210250692462        0.37674983647987
C           -6.27387756998964        3.95232024432579       -0.31879433841052
C           -6.29799526298764        5.41617620691446       -0.43601892346052
C           -7.49602231971222        6.09280017293101       -0.65608868540957
C           -7.51661953750254        7.47008509911704       -0.77103894841967
C           -6.34220494722992        8.19602801262903       -0.66382417462447
C           -5.14581501174684        7.53456878196515       -0.44262887234676
C           -5.12241030095061        6.15703380826330       -0.33174954180045
C           -5.25155071417071        3.20532674622187       -0.90215281506644
C           -5.22927707669447        1.83032548843273       -0.80413937418528
C           -4.80180512175879       -2.15647632847755       -0.46991845120598
C           -3.59564470488968       -2.80991644799937       -0.34913724790659
C           -1.19326440564704       -4.31218032658958        0.68403729628833
N           -0.06760272912528       -4.99331039211961        0.77478728256126
C            1.07648638136636       -4.34424147973475        0.67478169578683
C            1.17362362555315       -2.96820824790393        0.46870097642517
C            2.47316844587320       -2.30142835741382        0.38250590673665
C            3.50148413338772       -2.84629084169786       -0.38545147607959
C            4.72058651320573       -2.21315081574728       -0.48517731198919
C            4.96044159242790       -1.02166069456384        0.20445032798571
N            6.18791243957366       -0.37502703096990        0.10235256771860
C            7.36594095936473       -1.11092419596649       -0.07710469993048
C            8.37089499466470       -0.64014250415003       -0.92158659356952
C            9.53550452382472       -1.35891902282035       -1.08886000719086
C            9.73251613604490       -2.57294422154627       -0.43247283123290
C           10.97151915133228       -3.33915496584630       -0.61916034112707
C           12.20415499941763       -2.69281890043415       -0.68642967880752
C           13.36997341930281       -3.41483910139435       -0.85955232367845
C           13.32522345497265       -4.79431620072793       -0.97276211737287
C           12.10575168074307       -5.44751333234767       -0.90975053611807
C           10.93922985867687       -4.72759952911180       -0.73252063872146
C            8.72208408282038       -3.03927318083389        0.40719233733956
C            7.56007635668642       -2.31994090460835        0.59032020927050
C            6.25856725813113        1.02315108012107        0.17373398773486
C            7.31951653638100        1.64169718921564        0.83397962498659
C            7.39254154744274        3.01707502256909        0.90144510154525
C            6.40708929761195        3.81851052521557        0.32737118306392
C            6.47980521750590        5.28279212365119        0.41637871167649
C            7.69617294632337        5.94599005787659        0.26795382574137
C            7.76235756988368        7.32399444589918        0.35336066941293
C            6.61615851196123        8.06328977714772        0.59299114097580
C            5.40183263428136        7.41488293014151        0.74388535082086
C            5.33272886684952        6.03733285373096        0.65426625005034
C            5.34905861104057        3.19277017645786       -0.33034291752479
C            5.27621779103227        1.81846766734529       -0.41539756767907
C            3.94030212450504       -0.49129805198459        0.99833316260560
C            2.71593434970356       -1.11602800762562        1.07557279494735
H           -1.95791871690901       -0.56531455668617        1.57540484838872
H           -4.09699886828568        0.59708333395202        1.36339826866550
H           -6.80233515971258       -2.39997833328644        1.41729321581357
H           -8.91032827063993       -3.64758605748079        1.34806645250985
H          -10.15728222849554       -5.05888168058828       -0.09402973459747
H          -12.27418761816827       -6.30361678527536       -0.14310364769665
H          -14.42178769231037       -5.09336042592993       -0.25668751367175
H          -14.43561214854239       -2.62615962921016       -0.30913806187405
H          -12.32099704610563       -1.37848033133594       -0.23651925322978
H          -10.42085111986237       -0.93418268579993       -1.58449006882762
H           -8.31335902313472        0.31510335497096       -1.51530275092161
H           -8.02168958180553        1.38753954040080        1.04930416625445
H           -8.06078572105973        3.83064922361919        0.85924362243353
H           -8.41344373301173        5.53138916537853       -0.75893339189357
H           -8.45261247187610        7.98016878885709       -0.94790462961039
H           -6.35935520107522        9.27227812502932       -0.75253596506519
H           -4.22677796046776        8.09577639857503       -0.35425892546302
H           -4.18812191318472        5.64891803723555       -0.14219420684575
H           -4.47960142160270        3.70684919484703       -1.46658005116434
H           -4.43835894082961        1.26712638933000       -1.27739711510064
H           -5.60023719002921       -2.59745059289961       -1.04815512010516
H           -3.45195954388900       -3.75709294855641       -0.84805873936863
H           -2.10117858620580       -4.88891770848314        0.79986604312787
H            1.97027577462216       -4.94523254274710        0.77668941642134
H            3.32610772513281       -3.75573762789168       -0.94146293696238
H            5.49551635189739       -2.63099143920141       -1.11046994999818
H            8.22661821087652        0.29128694048850       -1.44937546849030
H           10.29360880260029       -0.98894016059286       -1.76329852007412
H           12.24828771480508       -1.61848623828390       -0.58082347601819
H           14.31878422202611       -2.89983613978506       -0.90397062419145
H           14.23643874554918       -5.35766723616858       -1.10947316537430
H           12.06396981365593       -6.52325918675883       -1.00171151139884
H            9.98974876274976       -5.24227415216244       -0.70238595500868
H            8.86324900044949       -3.96354921494584        0.94790952355260
H            6.79498990024806       -2.68581035837173        1.25963487211659
H            8.08180675353287        1.03412417363677        1.29978039888553
H            8.21028135486085        3.47807580175224        1.43564205240757
H            8.59147921776806        5.37677034315026        0.06344144370717
H            8.71199702973068        7.82456994200871        0.23031703515534
H            6.66911941358465        9.13982973328222        0.66172175645991
H            4.50473702341486        7.98596687642164        0.93487267888358
H            4.38517229184512        5.53669178900791        0.79042998723265
H            4.58759542662164        3.79234786166653       -0.80649886773105
H            4.45708986833848        1.35149912137269       -0.94234005478851
H            4.11786195844420        0.41505499712660        1.55730534590460
H            1.94660311206825       -0.69551582375501        1.70641045138659
