  69
       -106.04281064
 C          3.5540156246       -7.7313610181       -0.0335701352
 C          3.5961256628       -6.5988682428       -0.8297208731
 C          2.5400553133       -5.7069826209       -0.8263283059
 C          1.4203596451       -5.9379032904       -0.0306002679
 C          0.2971212866       -4.9877986166       -0.0311039085
 C         -1.0217847842       -5.4402991744       -0.0358189662
 C         -2.0759835241       -4.5430899866       -0.0438281509
 C         -1.8350915314       -3.1826201915       -0.0425119589
 C         -0.5226575670       -2.7146807815       -0.0336594721
 C         -0.2497170623       -1.2772695403       -0.0286629086
 N         -1.2850569142       -0.4437348579       -0.0341215875
 C         -0.9892916248        0.8529606356       -0.0353166315
 C         -2.0970240146        1.8087126294       -0.0481651988
 C         -1.8444418032        3.1787288567       -0.0753762448
 C         -2.9012297583        4.0686064353       -0.0872098481
 C         -4.2057817382        3.6059077926       -0.0722811933
 C         -4.4751850094        2.2379984569       -0.0428156822
 C         -5.8603997546        1.7431742212       -0.0181795069
 C         -6.2120995586        0.6704372491        0.7978849463
 C         -7.5137067579        0.2057865578        0.8267572026
 C         -8.4834873834        0.8006248281        0.0370186518
 C         -8.1437109799        1.8651637669       -0.7809438539
 C         -6.8437514638        2.3353401575       -0.8068229107
 C         -3.4090736260        1.3472681612       -0.0316739949
 N          0.2502233118        1.3330292212       -0.0212627533
 C          1.2252477164        0.4286090990       -0.0110993604
 C          2.6073100593        0.9082061476        0.0133092959
 C          3.6652487868        0.0012811796        0.0221828928
 C          4.9655841349        0.4671698740        0.0446761529
 C          5.2206103506        1.8277061532        0.0577640082
 C          4.1730143009        2.7479570104        0.0533370173
 C          4.4430573983        4.1939326595        0.0774492414
 C          5.4641887330        4.7406529101       -0.6956038278
 C          5.7151501391        6.1000449354       -0.6695687786
 C          4.9550476063        6.9332474796        0.1339079931
 C          3.9382461282        6.3994607358        0.9079845527
 C          3.6810363811        5.0415698063        0.8779998029
 C          2.8670537981        2.2745533057        0.0310795236
 N          1.0209041241       -0.8847799331       -0.0193921163
 C          0.5341623681       -3.6189799060       -0.0300501866
 C          1.3867803785       -7.0811529567        0.7637263578
 C          2.4472778945       -7.9683679875        0.7641921288
 H          4.3806668050       -8.4263514545       -0.0349409274
 H          4.4553300803       -6.4118766919       -1.4575635485
 H          2.5698576352       -4.8328589619       -1.4602225207
 H         -1.2192644761       -6.5023383619       -0.0540694942
 H         -3.0918320867       -4.9105976405       -0.0544617153
 H         -2.6449146860       -2.4706675825       -0.0498792121
 H         -0.8225488308        3.5226923835       -0.0878616698
 H         -2.7102715727        5.1317817783       -0.1054112585
 H         -5.0256654055        4.3094066071       -0.0629766162
 H         -5.4624796702        0.2133408341        1.4269739563
 H         -7.7739387796       -0.6228951193        1.4693038352
 H         -9.4999061976        0.4361778893        0.0587897771
 H         -8.8954284572        2.3298016814       -1.4025002366
 H         -6.5813474051        3.1548911169       -1.4599703132
 H         -3.5819062461        0.2824007582       -0.0290874574
 H          3.4490055303       -1.0550629911        0.0129609011
 H          5.7889297937       -0.2321714276        0.0553047010
 H          6.2402054976        2.1832999667        0.0926380081
 H          6.0498851035        4.0977171009       -1.3365028610
 H          6.5060067577        6.5118869211       -1.2796104226
 H          5.1540270572        7.9944762161        0.1564028217
 H          3.3448444700        7.0448186599        1.5393244127
 H          2.8974621072        4.6270280256        1.4951726412
 H          2.0340090542        2.9597159039        0.0090632431
 H          1.5423064046       -3.2356656677       -0.0070660904
 H          0.5331146339       -7.2627099951        1.4005220430
 H          2.4111424653       -8.8480533228        1.3902313326
  69
       -106.04273090
 C          3.4537630801       -7.7764983923        0.3554591076
 C          2.2215625835       -7.9978860799        0.9475281999
 C          1.1913692333       -7.0936739714        0.7674082352
 C          1.3794023350       -5.9490229258       -0.0033474687
 C          0.2848041694       -4.9844624931       -0.1922380079
 C         -1.0200881758       -5.4233294218       -0.4131454874
 C         -2.0511735224       -4.5162307823       -0.5861102977
 C         -1.8016810172       -3.1585762962       -0.5343377713
 C         -0.5026509874       -2.7039676712       -0.3165975717
 C         -0.2268870521       -1.2684759356       -0.2531859894
 N         -1.2635355365       -0.4365101667       -0.2422230547
 C         -0.9703998847        0.8588340983       -0.1767369495
 C         -2.0805112603        1.8111159325       -0.1428335442
 C         -1.8365170942        3.1813740968       -0.2077236468
 C         -2.8964495687        4.0666863779       -0.1665822453
 C         -4.1947667181        3.5993146406       -0.0551699082
 C         -4.4551537851        2.2310420152        0.0108742972
 C         -5.8326213501        1.7288939339        0.1310614798
 C         -6.7492823313        2.3571597118        0.9702797247
 C         -8.0398511542        1.8752907192        1.0883932518
 C         -8.4369811420        0.7628953405        0.3656156854
 C         -7.5343677505        0.1329036480       -0.4749111298
 C         -6.2419224011        0.6094162524       -0.5897654753
 C         -3.3864042774        1.3445883720       -0.0368388278
 N          0.2680021417        1.3395077709       -0.1347053452
 C          1.2444297549        0.4366742432       -0.1500367443
 C          2.6241757290        0.9201454316       -0.0953975872
 C          3.6879115397        0.0208431556       -0.1287317534
 C          4.9847141920        0.4940508237       -0.0730147585
 C          5.2303915865        1.8534945008        0.0156854803
 C          4.1767288790        2.7661876810        0.0533638582
 C          4.4337853386        4.2107753946        0.1595568411
 C          5.4658101152        4.8074094434       -0.5604224843
 C          5.7023175562        6.1657272887       -0.4564487429
 C          4.9158485315        6.9484838718        0.3720070201
 C          3.8877197255        6.3650154878        1.0935721168
 C          3.6460508027        5.0082174367        0.9868008922
 C          2.8745829821        2.2852528107       -0.0039884696
 N          1.0428097904       -0.8763954568       -0.2048546047
 C          0.5325604222       -3.6178480483       -0.1513390219
 C          2.6242672329       -5.7333395171       -0.5898827966
 C          3.6512377348       -6.6418284305       -0.4137716370
 H          4.2570920857       -8.4850228527        0.4936059850
 H          2.0631970918       -8.8789460251        1.5521810639
 H          0.2376210001       -7.2637374017        1.2448050134
 H         -1.2222330083       -6.4831986901       -0.4677170856
 H         -3.0554379537       -4.8739352928       -0.7615338656
 H         -2.5934288032       -2.4378016650       -0.6632476229
 H         -0.8193092584        3.5290060997       -0.2934551569
 H         -2.7131935761        5.1298506529       -0.2233568386
 H         -5.0180498697        4.2987125039       -0.0382604577
 H         -6.4406451259        3.2151667466        1.5496513566
 H         -8.7386090432        2.3679029897        1.7489356462
 H         -9.4456857135        0.3881809839        0.4573069029
 H         -7.8401862746       -0.7334275813       -1.0433608620
 H         -5.5456245717        0.1242351765       -1.2577992681
 H         -3.5506085156        0.2805767300        0.0335896578
 H          3.4787776986       -1.0347099672       -0.1973924650
 H          5.8130428330       -0.1991223308       -0.0949581816
 H          6.2474510677        2.2125544175        0.0776585616
 H          6.0724048588        4.2054837759       -1.2214032791
 H          6.5024637736        6.6165518284       -1.0254346343
 H          5.1033790209        8.0088032334        0.4550127095
 H          3.2732801265        6.9704301507        1.7440612416
 H          2.8532326023        4.5550713611        1.5635659480
 H          2.0362631481        2.9641240274        0.0054024971
 H          1.5272549079       -3.2442864166        0.0353586026
 H          2.7781659356       -4.8576736485       -1.2031764198
 H          4.6100131636       -6.4662531556       -0.8802275284
  69
       -106.04261738
 C          3.5207776563       -7.6950919116        0.5525216038
 C          3.7117321462       -6.5786030570       -0.2444845546
 C          2.6706215390       -5.6969081307       -0.4677186954
 C          1.4180466589       -5.9214261840        0.0988242417
 C          0.3112831306       -4.9811253503       -0.1359019411
 C         -0.9840393371       -5.4441111011       -0.3652990677
 C         -2.0246832974       -4.5564287382       -0.5783957371
 C         -1.7951686771       -3.1939909356       -0.5609536550
 C         -0.5057148280       -2.7161916092       -0.3373279410
 C         -0.2431804863       -1.2771464230       -0.3151021410
 N         -1.2840228532       -0.4505316626       -0.2954020338
 C         -0.9954684200        0.8473608211       -0.2676086375
 C         -2.1070831530        1.7977004476       -0.2249449463
 C         -1.8654687831        3.1652022991       -0.3385202635
 C         -2.9231674953        4.0525687658       -0.2898909648
 C         -4.2171339928        3.5893764587       -0.1254750453
 C         -4.4751710350        2.2240621086       -0.0064154084
 C         -5.8495953353        1.7347592508        0.1834992119
 C         -6.1151531649        0.7041787212        1.0824380341
 C         -7.4077253120        0.2519272300        1.2719019826
 C         -8.4546755476        0.8165286556        0.5623575994
 C         -8.2009665477        1.8376039831       -0.3382969534
 C         -6.9097763192        2.2955375957       -0.5247013868
 C         -3.4085664044        1.3352183639       -0.0603938492
 N          0.2414420784        1.3350578983       -0.2668881228
 C          1.2213928456        0.4367160402       -0.2901760315
 C          2.6012595855        0.9228360567       -0.2870841716
 C          3.6573965857        0.0349607768       -0.4812205335
 C          4.9563507384        0.5053228007       -0.4727987537
 C          5.2115844150        1.8496729345       -0.2635486685
 C          4.1656220271        2.7502530784       -0.0652292930
 C          4.4358239507        4.1781417966        0.1636130113
 C          5.4808693748        4.5790119454        0.9922495845
 C          5.7290665558        5.9212272225        1.2121905582
 C          4.9416682628        6.8836548328        0.6030490411
 C          3.9017203091        6.4957498531       -0.2254806130
 C          3.6480532368        5.1542782364       -0.4418403725
 C          2.8604323290        2.2741464207       -0.0842258210
 N          1.0250008757       -0.8778015017       -0.3122883565
 C          0.5389882831       -3.6105271829       -0.1295736337
 C          1.2362104743       -7.0486771080        0.8963825590
 C          2.2803965465       -7.9260961732        1.1232711317
 H          4.3354064513       -8.3819346382        0.7288268110
 H          4.6768022463       -6.3953764054       -0.6943085921
 H          2.8201403352       -4.8359509839       -1.1024442429
 H         -1.1709139942       -6.5078007348       -0.3945474999
 H         -3.0207184836       -4.9329909889       -0.7608625612
 H         -2.5945936391       -2.4886627787       -0.7241675134
 H         -0.8510842768        3.5085254391       -0.4648171560
 H         -2.7412160606        5.1140526579       -0.3751421649
 H         -5.0357231806        4.2919791212       -0.0670203847
 H         -5.3043847579        0.2712441491        1.6497545893
 H         -7.6004546619       -0.5431304443        1.9776926644
 H         -9.4641923529        0.4628231445        0.7111613793
 H         -9.0131736980        2.2786444841       -0.8979328027
 H         -6.7164581395        3.0814382785       -1.2403499994
 H         -3.5737165153        0.2713574025        0.0117114509
 H          3.4403259403       -1.0093739234       -0.6400135247
 H          5.7784437605       -0.1776663841       -0.6303034804
 H          6.2296628196        2.2111870515       -0.2720660791
 H          6.0882638954        3.8322759350        1.4827480368
 H          6.5380643204        6.2179264128        1.8639289410
 H          5.1375745649        7.9320189703        0.7730546842
 H          3.2868309622        7.2433820746       -0.7051903631
 H          2.8451524039        4.8559681717       -1.0997990761
 H          2.0290020899        2.9409096778        0.0840693845
 H          1.5251235853       -3.2172657902        0.0632443850
 H          0.2760272742       -7.2248160751        1.3591825360
 H          2.1267925044       -8.7929851589        1.7495322244
  69
       -106.04236301
 C          3.3917745400       -7.7890618237        0.6681547768
 C          3.6930333729       -6.6306983211       -0.0285910840
 C          2.6946997343       -5.7265458693       -0.3402008080
 C          1.3759108530       -5.9688708057        0.0369821449
 C          0.3132880576       -5.0038131386       -0.2847903386
 C         -0.9456947837       -5.4393433066       -0.6973248094
 C         -1.9498394463       -4.5305676140       -0.9833044272
 C         -1.7194546443       -3.1740354708       -0.8587863538
 C         -0.4639803589       -2.7228976684       -0.4567783089
 C         -0.2047061629       -1.2879388951       -0.3372316189
 N         -1.2478756324       -0.4642108556       -0.3634914262
 C         -0.9659338798        0.8325129987       -0.2836641344
 C         -2.0809119423        1.7798821887       -0.2862536159
 C         -1.8461748699        3.1374424709       -0.4923144292
 C         -2.9071527640        4.0224330688       -0.4890059575
 C         -4.1959743018        3.5669495155       -0.2717088970
 C         -4.4455500319        2.2123071137       -0.0541053619
 C         -5.8135099850        1.7358048387        0.2032931319
 C         -6.0545047650        0.7834711017        1.1907377798
 C         -7.3410700907        0.3484744507        1.4488842850
 C         -8.4059587891        0.8515706453        0.7202810061
 C         -8.1764131667        1.7929790183       -0.2691137491
 C         -6.8913032195        2.2345909129       -0.5240679299
 C         -3.3770194793        1.3242724467       -0.0700348130
 N          0.2662588828        1.3223097743       -0.1959827718
 C          1.2479144085        0.4260136971       -0.1523505871
 C          2.6192880871        0.9207973945       -0.0304414649
 C          3.6875050465        0.0285217066        0.0343504662
 C          4.9768803657        0.5123375707        0.1456373066
 C          5.2111000781        1.8761165682        0.1864737184
 C          4.1525402095        2.7815373804        0.1243551156
 C          4.3989704155        4.2315252914        0.1680335072
 C          5.4444183529        4.7963485733       -0.5580780211
 C          5.6699842710        6.1599393685       -0.5208841799
 C          4.8602787673        6.9788766354        0.2481914675
 C          3.8197563061        6.4266125401        0.9764998804
 C          3.5872588565        5.0644483058        0.9342003950
 C          2.8574389413        2.2905028100        0.0194408167
 N          1.0575296201       -0.8885571588       -0.2132250770
 C          0.5446869526       -3.6378031784       -0.1755132069
 C          1.0835590759       -7.1392536598        0.7335164182
 C          2.0840007022       -8.0400006844        1.0481468293
 H          4.1727519157       -8.4929804044        0.9150356381
 H          4.7111884498       -6.4320499859       -0.3304501140
 H          2.9327036161       -4.8328120869       -0.8978474197
 H         -1.1308655601       -6.4974523115       -0.8125270250
 H         -2.9173658671       -4.8854453059       -1.3074169814
 H         -2.4903950135       -2.4516841991       -1.0761032800
 H         -0.8354482723        3.4754355242       -0.6575463674
 H         -2.7311416356        5.0758850054       -0.6512158833
 H         -5.0171767346        4.2685355323       -0.2474838495
 H         -5.2288371602        0.3999639465        1.7719682146
 H         -7.5150590216       -0.3840293830        2.2237361514
 H         -9.4108125748        0.5113489099        0.9224892941
 H         -9.0029832949        2.1842742936       -0.8443610738
 H         -6.7164438256        2.9580656678       -1.3071194131
 H         -3.5369436983        0.2668809660        0.0751133534
 H          3.4873399192       -1.0304084984       -0.0033832700
 H          5.8080202974       -0.1754899791        0.2023857706
 H          6.2211646780        2.2462058414        0.2871659608
 H          6.0691381569        4.1637181574       -1.1718811448
 H          6.4796019917        6.5863799529       -1.0952854383
 H          5.0392995621        8.0434796853        0.2792757556
 H          3.1875490254        7.0609297563        1.5808081409
 H          2.7826205000        4.6358279104        1.5134623414
 H          2.0173213742        2.9644861881       -0.0435613225
 H          1.5019719452       -3.2667938490        0.1563428510
 H          0.0688000385       -7.3320691091        1.0498702984
 H          1.8435277003       -8.9400678725        1.5952330773
