  94
       -145.88372678
 C          2.1232448419        0.3981292293        3.3305896277
 C          2.9158966012       -0.3951638556        2.3675823095
 N          4.0413756278       -0.9829810443        2.6252095449
 C          4.3904035899       -1.6730808504        1.4911006165
 C          5.4775402087       -2.4968113853        1.2315669162
 C          5.5469034299       -3.0915076016       -0.0125236560
 C          4.5666577804       -2.8808709022       -0.9831763119
 C          3.4710834593       -2.0743113031       -0.7410807952
 C          3.3966178246       -1.4828082949        0.5065383848
 N          2.4707546008       -0.6390694213        1.0811191750
 C          1.2498784271       -0.2782646790        0.5088354754
 C          0.2995637192       -1.2689135033        0.2647236997
 C         -0.9258880994       -0.9569743928       -0.2810450549
 S         -2.0789996287       -2.3482295469       -0.4678520042
 O         -1.6986393406       -3.2947761852        0.5491304284
 O         -2.0186721646       -2.8027534753       -1.8361020396
 C         -3.7049765771       -1.7160500848       -0.0940484082
 C         -3.9367866658       -1.2403622995        1.1803131688
 C         -5.1985318075       -0.7856476279        1.5143537589
 C         -6.2383093146       -0.7993516308        0.5868969525
 C         -7.6488894835       -0.3940353853        0.9789091560
 C         -8.3916891894       -1.6775052947        1.3831552856
 C         -8.3804544273        0.2725320869       -0.1923272323
 C         -7.6497321453        0.5837041582        2.1593988712
 C         -5.9665773182       -1.2765293448       -0.6939475778
 C         -4.7083865459       -1.7332848338       -1.0400198029
 C         -1.2456982062        0.3557399580       -0.6113596562
 N         -2.4875424396        0.7191713184       -1.1377434298
 C         -2.9749890094        0.5239677000       -2.4163530415
 C         -2.1958376895       -0.1938591014       -3.4471451642
 N         -4.1311078661        1.0803902342       -2.5990269484
 C         -4.4590921288        1.6971469322       -1.4177469476
 C         -5.5654750259        2.4613771317       -1.0716297537
 C         -5.6059711352        2.9876436495        0.2040504307
 C         -4.5788483404        2.7675912331        1.1227178279
 C         -3.4648314460        2.0185064472        0.7954867059
 C         -3.4201343521        1.4946262475       -0.4834436897
 C         -0.2900989406        1.3441500306       -0.3806916764
 C          0.9374824119        1.0317572872        0.1616563677
 S          2.1070477789        2.4159966776        0.2991741627
 O          2.0147506378        2.9591530212        1.6331707729
 O          1.7708343672        3.2998154159       -0.7873529465
 C          3.7341743635        1.7383280300        0.0176244972
 C          4.0066862323        1.1937053105       -1.2205796143
 C          5.2686112546        0.6907629696       -1.4764496843
 C          6.2681320395        0.7240377807       -0.5063125486
 C          7.6798504406        0.2528717097       -0.8107253903
 C          7.6979976907       -0.7875932890       -1.9360718991
 C          8.3319807001       -0.3730911363        0.4281056657
 C          8.4872480210        1.4859507170       -1.2462543547
 C          5.9573674359        1.2772833157        0.7344399168
 C          4.6987621589        1.7823061292        1.0023877648
 H          2.0111860310        1.4234342709        2.9798231391
 H          1.1290371948       -0.0345172621        3.4457813930
 H          2.6302640379        0.3953555292        4.2903846793
 H          6.2212647594       -2.6752392437        1.9916965596
 H          6.3747432788       -3.7464618729       -0.2411409827
 H          4.6596435942       -3.3707876639       -1.9407966789
 H          2.7012727461       -1.9247605151       -1.4837298364
 H          0.4982263406       -2.2964014182        0.5255583328
 H         -3.1342167242       -1.2476066838        1.9016531435
 H         -5.3641296478       -0.4233186167        2.5142855176
 H         -9.4122291428       -1.4416430193        1.6755716724
 H         -8.4218698300       -2.3809044939        0.5540943695
 H         -7.8933878659       -2.1604932813        2.2211172498
 H         -8.6070373676       -0.4369607696       -0.9830262784
 H         -7.7737992468        1.0748503862       -0.6025509287
 H         -9.3239133518        0.6899554082        0.1515977076
 H         -8.6549642229        0.9674846113        2.3173509393
 H         -7.3379468954        0.0999129355        3.0815581696
 H         -6.9877295691        1.4212029392        1.9542505077
 H         -6.7409037779       -1.3012917763       -1.4414949940
 H         -4.4955416243       -2.1075229960       -2.0282600987
 H         -1.2191699246        0.2736087569       -3.5748112830
 H         -2.0434297124       -1.2316380932       -3.1519349745
 H         -2.7382147171       -0.1587850319       -4.3867696209
 H         -6.3470456650        2.6469560713       -1.7909507995
 H         -6.4478483995        3.5964473996        0.4995535109
 H         -4.6501002092        3.2042925249        2.1076055120
 H         -2.6595878083        1.8618048867        1.4981408934
 H         -0.4877497111        2.3707853801       -0.6455133827
 H          3.2350703978        1.1823600714       -1.9748415998
 H          5.4656077795        0.2721692647       -2.4482401687
 H          6.9994321524       -1.5908791657       -1.7163075698
 H          8.6953481487       -1.2113262097       -2.0275927377
 H          7.4434124590       -0.3455844220       -2.8959387081
 H          8.5561818238        0.3717038774        1.1863785753
 H          9.2696001486       -0.8491052904        0.1510855730
 H          7.6736024207       -1.1237892797        0.8556442479
 H          8.5016712746        2.2340219724       -0.4567953455
 H          9.5119310543        1.2000732803       -1.4722733878
 H          8.0486956169        1.9366792528       -2.1340646179
 H          6.7002987380        1.3215648840        1.5121728178
 H          4.4561619190        2.2145540375        1.9594726381
