  94
       -145.77899138
 C          2.4630254148        3.9912370438       -1.6253128680
 C          3.3335157258        3.4080969713       -0.5861724530
 N          4.4190893762        3.9375763156       -0.1302584311
 C          4.8925043550        3.0932990013        0.8481229156
 C          6.0389185903        3.1618784314        1.6180721708
 C          6.2608635985        2.1416818767        2.5338863718
 C          5.3753733376        1.0743473010        2.6722227361
 C          4.2240129562        0.9859352661        1.9097181249
 C          3.9883276747        2.0113545166        1.0025299463
 N          3.0059448084        2.2151618414        0.0676330258
 C          1.8778324374        1.4579996870       -0.1166850343
 C          1.1781429870        0.9578613487        0.9641724560
 C          0.0059301432        0.2328613038        0.8144348453
 S         -0.9942591161        0.0653759419        2.2905273479
 O         -0.5930519350        1.1327793318        3.1786078438
 O         -0.8628417697       -1.2751421144        2.8296898975
 C         -2.6979155725        0.3332971705        1.8000899531
 C         -3.0456991479        1.5697237153        1.2955177856
 C         -4.3567313708        1.8103024170        0.9294443392
 C         -5.3331754173        0.8244201420        1.0565365423
 C         -6.7903294298        1.1096257536        0.7358832772
 C         -7.4671586284        1.5464171576        2.0443525012
 C         -7.4912501339       -0.1409044781        0.1908769470
 C         -6.9327156022        2.2266542521       -0.3039693303
 C         -4.9479344087       -0.4150864141        1.5623868766
 C         -3.6397968437       -0.6657345449        1.9319457673
 C         -0.5287144111        0.0332098584       -0.5006796090
 N         -1.7174760456       -0.6465612517       -0.7105479411
 C         -1.9961840360       -1.9759834021       -0.4189292792
 C         -1.0207466002       -2.8339096586        0.2742807697
 N         -3.1414595305       -2.3576334822       -0.8883524299
 C         -3.6857597954       -1.2703422153       -1.5304515011
 C         -4.8847607664       -1.1276031403       -2.2085097972
 C         -5.1476380240        0.0995979463       -2.7965116075
 C         -4.2506492775        1.1627954758       -2.7084184131
 C         -3.0482914201        1.0387764972       -2.0356916360
 C         -2.7776558724       -0.1884284502       -1.4551348824
 C          0.1561522748        0.5342602659       -1.5830140692
 C          1.3942950152        1.1804926403       -1.4551897691
 S          2.6280336382        0.5398061740       -2.5997396285
 O          3.8435408032        1.3146430178       -2.5238539065
 O          1.9997545840        0.4075813768       -3.8926182668
 C          2.8829016176       -1.0603050335       -1.8466451955
 C          2.0440156558       -2.1127699032       -2.1594727244
 C          2.0495340454       -3.2487680630       -1.3689213433
 C          2.8598818829       -3.3356639011       -0.2385473961
 C          2.8416103727       -4.5312929436        0.6969361161
 C          1.8631854626       -5.6187153792        0.2473079653
 C          2.4178555428       -4.0474454943        2.0918879323
 C          4.2468743241       -5.1457801076        0.7613358398
 C          3.7030886610       -2.2608836282        0.0462302831
 C          3.7185537208       -1.1310144070       -0.7446232710
 H          2.4068757824        3.3092999767       -2.4730987007
 H          1.4556226450        4.1462974526       -1.2388708804
 H          2.8853392015        4.9388238268       -1.9454684216
 H          6.7341494071        3.9761339377        1.4964939230
 H          7.1458232724        2.1700371178        3.1512628685
 H          5.5915081912        0.2991026704        3.3914190258
 H          3.5416835643        0.1571861479        2.0099907265
 H          1.4670745126        1.2342028430        1.9657212709
 H         -2.2896332894        2.3348351710        1.2079055996
 H         -4.6115999301        2.7828680306        0.5449701259
 H         -8.5177654961        1.7644161328        1.8670706966
 H         -7.3967799897        0.7608530848        2.7933069196
 H         -6.9894465506        2.4392896839        2.4421098009
 H         -7.6298101014       -0.8926055577        0.9627360372
 H         -6.9096060881       -0.5706378812       -0.6198194039
 H         -8.4759223064        0.1229776161       -0.1878114276
 H         -7.9708957098        2.3058380047       -0.6179542228
 H         -6.6414651728        3.1917371730        0.1021510359
 H         -6.3224274459        2.0072804884       -1.1758124044
 H         -5.6708590163       -1.2043046467        1.6772974279
 H         -3.3396849152       -1.6225559161        2.3271068343
 H         -0.0492265832       -2.7621014829       -0.2124653585
 H         -0.9043065957       -2.5022127506        1.3062070871
 H         -1.3778710264       -3.8592153549        0.2598102834
 H         -5.5764427577       -1.9516331131       -2.2812972735
 H         -6.0695095863        0.2369820120       -3.3419026483
 H         -4.4931288050        2.0994842569       -3.1872824948
 H         -2.3434293454        1.8536360197       -1.9781143112
 H         -0.1929227055        0.3196430090       -2.5807731887
 H          1.4036103553       -2.0323178166       -3.0235735938
 H          1.4074818623       -4.0683257934       -1.6439415731
 H          0.8446570331       -5.2419450158        0.2267575480
 H          1.8996272761       -6.4482908415        0.9496943480
 H          2.1270681510       -6.0015870637       -0.7356195296
 H          3.1354837224       -3.3412988508        2.4987969398
 H          2.3501297361       -4.8920313561        2.7731615174
 H          1.4468024355       -3.5605906698        2.0486697162
 H          4.5611443788       -5.4720202010       -0.2277593923
 H          4.9774715369       -4.4330973007        1.1328536795
 H          4.2452510843       -6.0075934612        1.4245557092
 H          4.3571054841       -2.3020151177        0.9021992093
 H          4.3753275848       -0.3035107475       -0.5324839341
