94
 energy: -145.835077337241 gnorm: 0.000087298150 xtb: 6.7.1 (edcfbbe)
C            1.84271688064110        0.27917162448123        3.60456495472113
C            2.71499603907262       -0.46920430294903        2.68090884873752
N            3.82428070631506       -1.05371438874606        3.00208945091751
C            4.26649097618583       -1.72299326730654        1.88593994668163
C            5.39385014445994       -2.50001309082692        1.68510085725828
C            5.55110622204589       -3.09602102501182        0.44023509035287
C            4.62441972096026       -2.91135901925341       -0.58281778233406
C            3.49595948097830       -2.12950059086555       -0.40381807682757
C            3.32710967287550       -1.54394239936308        0.84204679907852
N            2.36164061472859       -0.70403159918823        1.35089821054617
C            1.19105581624658       -0.34830260494977        0.70274706366939
C            0.39208719087432       -1.32738555034696        0.14873509422271
C           -0.78765546998531       -1.04588446487562       -0.53227771152263
S           -1.98741935233622       -2.36337879540484       -0.61901584406943
O           -1.58224382141911       -3.36815439372962        0.34554939935136
O           -2.10435725041802       -2.84169131919362       -1.98624205994630
C           -3.57301084185613       -1.69525570590219       -0.12430810296128
C           -3.71148561748257       -1.18689815105295        1.15189992961983
C           -4.94032389688189       -0.69957849073388        1.56022557437512
C           -6.04323535871515       -0.71189424691357        0.70696044038509
C           -7.41945952412716       -0.26727785275376        1.17543911057694
C           -8.18031273214493       -1.53069540405668        1.60941792145758
C           -8.18965757074396        0.42830353203959        0.04510420604305
C           -7.33633124509999        0.70010691982939        2.36149976587474
C           -5.86643709216762       -1.22202726376701       -0.57858554609331
C           -4.64197263345366       -1.70831069509773       -0.99816134092011
C           -1.19004610799334        0.33997268303960       -0.66312150709664
N           -2.36205674266145        0.69432249665492       -1.31002448141537
C           -2.71098736821624        0.46889125039369       -2.64248215899725
C           -1.83090304344045       -0.26457613603748       -3.57071885523252
N           -3.82439988282174        1.04738437191198       -2.96033560334425
C           -4.27401061934675        1.70276286109129       -1.83899050364106
C           -5.40854096185077        2.46782045499852       -1.63252307882107
C           -5.57183553588892        3.05223824726858       -0.38303738446039
C           -4.64401633393916        2.86779378884292        0.63903689955949
C           -3.50892994859397        2.09683185806242        0.45478208144574
C           -3.33456248067911        1.52242562761377       -0.79538365667340
C           -0.39168837476969        1.31907344084444       -0.10883001551289
C            0.78959139701690        1.03798992185023        0.57050657467366
S            1.99335158199685        2.35348539030975        0.64204534255656
O            2.10963310779489        2.84905904176887        2.00323615082476
O            1.59268251995602        3.34729286296135       -0.33574942006009
C            3.57783825205053        1.67461933678500        0.15808715693189
C            3.71503884053197        1.14504374326208       -1.10952849850340
C            4.94267375682546        0.64783099313583       -1.50982020640665
C            6.04577535708333        0.67249231082868       -0.65720278211999
C            7.42157296207924        0.21644302604025       -1.11582898048435
C            7.34009159762364       -0.75070200774006       -2.30200841750575
C            8.17639450673181       -0.48537199599521        0.02111969440580
C            8.19667451180678        1.47293715838528       -1.54454718143824
C            5.87042621927575        1.20500662099223        0.61952452764828
C            4.64704549038924        1.70022333880185        1.03145024098258
H            1.80916127131887        1.33163602871204        3.31899865323690
H            0.82820180107091       -0.11580065472672        3.56529730880371
H            2.23589959758349        0.19084442996229        4.61260607267871
H            6.11725820745675       -2.63217417115652        2.47345487311515
H            6.41194982573980       -3.72214061455803        0.26037476019646
H            4.78027901160613       -3.39895033463006       -1.53271342741190
H            2.76658010739692       -2.00081605782338       -1.18785938456639
H            0.62881256067080       -2.36730677012494        0.31918974858541
H           -2.86128777102153       -1.19478957740244        1.81729532056009
H           -5.02931030629634       -0.31687823076391        2.56266109644189
H           -9.17746380348804       -1.26463760371410        1.95241310768036
H           -8.27232942474312       -2.22840001827954        0.78041296314436
H           -7.65646158312884       -2.03286188101840        2.41992024256969
H           -8.47757423674503       -0.26979384089447       -0.73534893069482
H           -7.58229998581188        1.21506078459250       -0.39416420929300
H           -9.10082916247512        0.87061716386144        0.44075982714369
H           -8.32727891692549        1.08899719702192        2.58358015606824
H           -6.97255487351601        0.20396508910140        3.25714924113883
H           -6.68286623392744        1.53510955423670        2.12372341647384
H           -6.69067904131022       -1.25472370392532       -1.27118090889673
H           -4.50209002415557       -2.11110661798702       -1.98942985115925
H           -0.81795927243203        0.13313716948721       -3.52035935995946
H           -1.79590721221529       -1.32037448123353       -3.29781532513045
H           -2.21856069138277       -0.16505221611055       -4.57984628158186
H           -6.13271385733613        2.59969869133711       -2.42021884820160
H           -6.43824231353769        3.66932843346495       -0.19876752833091
H           -4.80419321729429        3.34723047202293        1.59236558398183
H           -2.77851671935986        1.96853696926887        1.23794065916005
H           -0.62981783159961        2.35887557128658       -0.27802210009525
H            2.86474834650640        1.14363741411946       -1.77485686206207
H            5.03026647618189        0.24772107503580       -2.50552543697197
H            6.68258901946990       -1.58344283142335       -2.06722629421089
H            8.33065432218682       -1.14325797198121       -2.51934127750241
H            6.98234863465494       -0.25299229095785       -3.19926693460426
H            8.46140081508473        0.20968903658653        0.80527278397614
H            9.08812424558718       -0.93374132655727       -0.36634301315216
H            7.55931549198960       -1.26816169861105        0.45380046844163
H            8.28917399650846        2.17018224345826       -0.71526750192117
H            9.19380226452619        1.19791040295956       -1.88047565016535
H            7.68300161321727        1.97937086564031       -2.35892449701261
H            6.69527257220183        1.24815222063736        1.31090113880172
H            4.50799654514509        2.11937080520536        2.01602001030846
