66
 energy: -103.734771298262 gnorm: 0.000115166428 xtb: 6.7.1 (edcfbbe)
O            6.28574190272376        0.92385937709206       -2.24792825284552
S            5.72512749383687        1.11810762669680       -0.93536781291193
O            5.77965856958767        2.43397989528123       -0.35261360566597
C            6.50629317879099       -0.04751424846334        0.19051564257243
C            7.21644153250853       -1.11647093965591       -0.31980739019603
C            7.76780908276710       -2.04046959422064        0.55225966146331
C            7.59678526367226       -1.88632478834265        1.91912554948032
C            6.88193265254431       -0.80880683936685        2.42025179751401
C            6.32948985276676        0.11636387352010        1.55100828120278
C            4.03951773384580        0.54693560022165       -0.92170310623113
C            3.69972175673488       -0.59520221133853       -1.64530024802594
C            2.42562900189086       -1.08949183362092       -1.58956690341210
C            1.41286622232576       -0.45612530288789       -0.80658990998389
C            0.09027676194761       -0.95361678410202       -0.75167413937776
C           -0.22690103252696       -2.30901224461690       -1.14512379539924
C           -1.48245433011427       -2.81125587678200       -1.09483973707033
C           -2.55571334126980       -1.98231803584716       -0.66224319556940
C           -2.26362744337581       -0.61969247929410       -0.28393109001604
C           -1.00615354886950       -0.13224214988081       -0.30432312089851
C           -3.54632862718287        0.08043054339678        0.12664529551851
C           -3.37761173881033        0.55489792902595        1.55618071454302
C           -3.72897416208513       -0.26299391347927        2.62190258649199
C           -3.52005558575021        0.15314698650934        3.92511446785447
C           -2.94549281124351        1.38606481922613        4.17937278205927
C           -2.57745694931056        2.20032702639385        3.12145279147664
C           -2.78925370422543        1.78711660431519        1.81898534850115
C           -3.95487410900326        1.19445752857599       -0.81959644322479
C           -4.87644992129752        2.15248866928960       -0.41193401369726
C           -5.30418339467799        3.13276211286493       -1.28825491761487
C           -4.82221183281731        3.16564881055146       -2.58595787337883
C           -3.91320357705350        2.20874202031181       -3.00168312446349
C           -3.48643313881624        1.22550278224784       -2.12637460979980
C           -4.56270365703601       -1.03327844381476       -0.03290217511123
C           -5.91287512821574       -1.00409014635041        0.18960597551053
C           -6.66421812050092       -2.15710989665706       -0.05225974268320
C           -6.05402887840883       -3.32474482744573       -0.52209335135899
C           -4.70309530897443       -3.37439761518509       -0.75929128561307
C           -3.92725050912201       -2.21978308535338       -0.51766940976466
C            1.80369433986142        0.71185858696702       -0.08344331139224
C            3.08586640255346        1.18678051767236       -0.13275089349612
H            7.33952892580802       -1.19525101715901       -1.38866871993959
H            8.33107953620712       -2.87750568411026        0.16771686954436
H            8.02685779488169       -2.60722724208980        2.59866194223026
H            6.75739852863916       -0.69071911202035        3.48622457099421
H            5.77882124734230        0.97213075435953        1.90875925674834
H            4.45530930254583       -1.05656871146722       -2.26206145026545
H            2.17352120501839       -1.94772793242070       -2.19116832036953
H            0.58185698020735       -2.95583341374176       -1.44504209833728
H           -1.68202149906014       -3.83604390634414       -1.37029917321173
H           -0.82383645095386        0.89619500181890       -0.03886278463120
H           -4.17127835637477       -1.23047223529873        2.43220223827161
H           -3.80546356384260       -0.49070726427416        4.74415161174385
H           -2.78279597396261        1.71050173239647        5.19642148659675
H           -2.12440333554920        3.16246360630985        3.31112787177212
H           -2.50830818129973        2.43239576325085        0.99900330598984
H           -5.25188531085479        2.13820890072853        0.60119725194236
H           -6.01689239028650        3.87360586247833       -0.95640214578301
H           -5.15584663555345        3.93180258212773       -3.26985148233577
H           -3.53503135315753        2.22399374374775       -4.01327025361657
H           -2.78176841036959        0.47875686039840       -2.46250526527443
H           -6.39711582740947       -0.10907332282676        0.55044386665924
H           -7.72870076460321       -2.14644280144517        0.12436065772867
H           -6.66364313370093       -4.19859491238031       -0.70057226949842
H           -4.23252222988016       -4.27382958534324       -1.12567462479951
H            1.08744872877449        1.20707711596502        0.55212288557783
H            3.38503218703970        2.06628254895404        0.41616659078880
