66
 energy: -103.828343739632 gnorm: 0.000070827261 xtb: 6.7.1 (edcfbbe)
O            6.06468358511572        1.69165674817453       -1.74310236968985
S            5.65868224024436        1.36194040750247       -0.40199605251084
O            5.74102722773014        2.38257821583717        0.60963445916317
C            6.59761008320898       -0.07260639493441        0.14139610243057
C            7.36701747034001       -0.77205087424189       -0.76663581239045
C            8.05725148546953       -1.89617741650292       -0.34320842430378
C            7.96404275181887       -2.30527958969725        0.97768610686458
C            7.18775711852105       -1.59460439241107        1.88061622118776
C            6.49697647895907       -0.47049511436993        1.46041049026075
C            3.98166071369041        0.72408210608266       -0.43799193846476
C            3.61929985366774       -0.14377223794647       -1.45046454749014
C            2.34239924401854       -0.67175319036098       -1.46598852020114
C            1.42363699352434       -0.33406917038378       -0.47103627275356
C            0.06320127013681       -0.88913619766499       -0.48853347436976
C           -0.15010190856368       -2.23022992548824       -0.80942767744527
C           -1.42210024261581       -2.77316221254230       -0.82046943418537
C           -2.49989967443535       -1.95758274467853       -0.51542755482695
C           -2.29461198398738       -0.60585850942895       -0.20252019832719
C           -1.02707420787275       -0.07246018427451       -0.17869180169194
C           -3.61095166604193        0.07883400709324        0.10935316961483
C           -3.53020572399143        0.59196119232867        1.53414854896429
C           -3.94417308861374       -0.19315795797094        2.60178947709589
C           -3.80906409255804        0.26237264279669        3.90177677250561
C           -3.24924019408237        1.50277064181584        4.15212067437712
C           -2.82217715090618        2.28575258479376        3.09305063575038
C           -2.95903890849437        1.83293764704351        1.79365149081436
C           -3.97928555386880        1.16694023329075       -0.88041009163099
C           -4.93879650835427        2.11549096282303       -0.54490613131399
C           -5.32638715712971        3.07696802120439       -1.46002838089113
C           -4.76511762201437        3.10056470522739       -2.72540482549624
C           -3.81754432335478        2.15289475302559       -3.06973042798296
C           -3.42998825160106        1.18900395573503       -2.15537049877124
C           -4.59204683360348       -1.06313754089055       -0.07388353937632
C           -5.96432247536079       -1.04904621451251        0.05556246843963
C           -6.66784987573894       -2.22217257776907       -0.18191179594441
C           -6.00814784459718       -3.38605980730736       -0.54692578900245
C           -4.63008560253074       -3.40538462242233       -0.68523525912222
C           -3.92322638487935       -2.23759628657603       -0.44867544195048
C            1.81244291492751        0.54520147520334        0.54013731528142
C            3.09115977621902        1.07003559769678        0.55942342873566
H            7.42299133751659       -0.41497417340116       -1.78316765198162
H            8.66776123427104       -2.45012321785683       -1.04030028417355
H            8.50324884241965       -3.18092572327368        1.30754401911109
H            7.12362239590468       -1.91554675718922        2.90939604141978
H            5.89511974294784        0.11159739833695        2.14057852686589
H            4.33545285839150       -0.37870087827284       -2.22234010602249
H            2.04292609461705       -1.33307328393731       -2.26524607832030
H            0.69997384727615       -2.86004178993439       -1.02753906365198
H           -1.56952846786637       -3.81551351268807       -1.06048644167717
H           -0.87135930795666        0.97123094468786        0.04860075180341
H           -4.37720725512794       -1.16551938756892        2.41744921689545
H           -4.14183990665961       -0.35698351256174        4.72191393100284
H           -3.14457559873979        1.85750331413032        5.16675989270257
H           -2.38041044328910        3.25398350885783        3.27876523533246
H           -2.63151982474117        2.45461726545721        0.97269480832229
H           -5.37649812788259        2.10903033880385        0.44305304264276
H           -6.06996899780926        3.81026609890882       -1.18354985725113
H           -5.06646003530324        3.85260786687166       -3.43941918246265
H           -3.37698351076402        2.16104736449504       -4.05596519745280
H           -2.69348376677118        0.45035309669663       -2.43643128977491
H           -6.48529810485422       -0.14656421600634        0.33812408199176
H           -7.74320223791445       -2.22759329616129       -0.08154465515537
H           -6.57670982876908       -4.28672813846748       -0.72691089052946
H           -4.11803367396509       -4.31172259018046       -0.97233788453138
H            1.11238515399871        0.80098700309892        1.32165412512418
H            3.41285570368691        1.75637941541180        1.32718600814377
