53
 energy: -84.908122579913 gnorm: 0.000054148982 xtb: 6.7.1 (edcfbbe)
N           -5.55294132827068        3.35039974665279       -0.47322753709759
C           -4.48562358517513        2.98029882669489       -0.27018586097920
C           -3.17363149274979        2.52550505421620       -0.01361344020146
C           -2.26192055288608        3.35060842426629        0.64950602244638
C           -0.98691375179843        2.88971701505130        0.89899289835417
C           -0.59044221054967        1.61275560339856        0.50253043778655
N            0.70030744957678        1.16915200086686        0.79395980418066
C            1.87435274261338        1.80097147050560        0.41311714368902
C            2.05556364619374        3.01703671881944       -0.22817380823303
C            3.34958790602478        3.40313680826470       -0.52643419497752
C            4.43992289588029        2.59924130485621       -0.20386884846043
C            4.26270404926044        1.37894440558047        0.41874412769470
C            2.97230791948880        0.97088482902493        0.72906502792818
C            2.43206406386482       -0.21009730077737        1.34563484520722
C            3.00414852974451       -1.35673581124296        1.87944214126654
C            2.17684925825461       -2.30537638846241        2.44867358492326
C            0.80069971274538       -2.10601287691383        2.52021655325175
C            0.20967817537992       -0.97178472667446        1.99598304838014
C            1.03044630629806       -0.04442660043186        1.37337972716064
C           -1.50315778964109        0.78997311354827       -0.19093466783323
N           -1.13116416894425       -0.48063529274086       -0.64270617431153
C           -1.75830490614432       -1.67023929138938       -0.30995631335033
C           -2.91256276715366       -1.88412882642642        0.42844396331405
C           -3.30939771916926       -3.19141026748910        0.64177914040545
C           -2.57553736073201       -4.26379741028573        0.14071535465667
C           -1.41666477549496       -4.05579914855343       -0.58143892810663
C           -0.99933013456187       -2.75131873075398       -0.81036634064071
C            0.13078580257050       -2.18068162502656       -1.49092346722712
C            1.20367972939773       -2.72334330476684       -2.18521292801825
C            2.11887125270760       -1.86618493695427       -2.76461073736160
C            1.95690141803931       -0.48536767416508       -2.68641734189876
C            0.89674955440236        0.07710060996227       -2.00102177561498
C            0.00652166920952       -0.77930763348269       -1.37187521180910
C           -2.78849521022943        1.25383650454977       -0.43454458860372
H           -2.56388899121436        4.33513125231763        0.97217013644236
H           -0.28405882239220        3.50718486312231        1.43725510473633
H            1.21837789640662        3.64310733455914       -0.49901242098324
H            3.51637776887795        4.34781705362222       -1.02294002371322
H            5.43563188682874        2.93581254000106       -0.45225462298141
H            5.10655733606164        0.74928577289107        0.65669893447233
H            4.07410977234511       -1.49752350380505        1.85354605598175
H            2.60137781316219       -3.20768782627304        2.86325609230991
H            0.17979093096858       -2.84976072616971        2.99739624129548
H           -0.85471111920143       -0.81587761029490        2.08334220307050
H           -3.48386346003259       -1.06241659996891        0.83515906666125
H           -4.20701979941495       -3.38320611643564        1.21124375720443
H           -2.91851152030918       -5.27075433867076        0.32725683116480
H           -0.84144788884243       -4.88737724357488       -0.95942227902553
H            1.31303568920955       -3.79368052491330       -2.27367833348607
H            2.96402943479081       -2.26852051725343       -3.30329981552878
H            2.67091258743677        0.16205951401357       -3.17374963461558
H            0.76719526982670        1.14820921743146       -1.97133528651998
H           -3.48371711073847        0.63168664807268       -0.97858889612302
