53
 energy: -84.809789322138 gnorm: 0.000058735925 xtb: 6.7.1 (edcfbbe)
N           -5.60780571497703        3.29830468762468       -0.31971754658739
C           -4.51203624265721        2.93485959057080       -0.16939235357551
C           -3.22120270885088        2.49829468702197        0.03956181729165
C           -2.22421829361659        3.38290296558855        0.59863207119912
C           -0.94450028214520        2.96711179804836        0.75533127119614
C           -0.55061520531147        1.64185971400112        0.42251544751834
N            0.71471098651287        1.18386594383743        0.74046429487974
C            1.90425749043376        1.79973042294555        0.39819524188203
C            2.11811615010346        3.00220549712263       -0.26473841436933
C            3.42311868891589        3.37037899404686       -0.53807786540842
C            4.49625369968920        2.55931547207063       -0.16691875677435
C            4.29097263574625        1.34685354278492        0.46919339641883
C            2.99086145887597        0.95444629863213        0.75124877018936
C            2.41972956528929       -0.21496651742635        1.35520266965955
C            2.95644067016417       -1.36745462937236        1.91006921108470
C            2.09830987273553       -2.28778196178649        2.48773402816203
C            0.72500107853072       -2.05337664072102        2.54945074538085
C            0.16702451502673       -0.91713340773726        1.99108894603011
C            1.01391113841519       -0.02262009796805        1.35149391765852
C           -1.53727031163505        0.76291615039308       -0.16818876799526
N           -1.14488396664777       -0.49600404315948       -0.62635796948319
C           -1.75580574439733       -1.69321249529490       -0.30966238074060
C           -2.89451344983786       -1.93230932886958        0.45015268173105
C           -3.26673976259023       -3.24708844991051        0.66217480932654
C           -2.52464686043219       -4.30401830962696        0.13883106023646
C           -1.37528838830851       -4.07373455894025       -0.59761335053543
C           -0.98291996934044       -2.76348146924600       -0.82369523425000
C            0.13452585534864       -2.16951319128087       -1.50789196726778
C            1.20553070692689       -2.68900521861789       -2.21880481730901
C            2.09743861795412       -1.80990191601933       -2.80891695645818
C            1.90981942899000       -0.43277715912973       -2.72497910399035
C            0.84917665972029        0.10645699298147       -2.01983388195950
C           -0.01296823130180       -0.76918087566337       -1.37417793857101
C           -2.82817950270324        1.18856716373469       -0.33473108769787
H           -2.52987326056646        4.37581871849658        0.89157238981707
H           -0.21244143542813        3.61890031648622        1.20783535736278
H            1.29494048045119        3.62952319705368       -0.57043991958883
H            3.61356238054750        4.30063611191678       -1.05133359040234
H            5.50190753015157        2.88167070314210       -0.39183808978398
H            5.12317406562454        0.71331092815043        0.73459608409411
H            4.02220845822220       -1.53621072435840        1.89865202413466
H            2.49803794722753       -3.19202313712402        2.92149236610447
H            0.08473598486102       -2.76607430691245        3.04619885533123
H           -0.89193084833125       -0.72532048930993        2.07375683750552
H           -3.47168731346935       -1.12189947374073        0.86910763616446
H           -4.15079545835256       -3.45641254757227        1.24549666316287
H           -2.85025412420299       -5.31734330899504        0.32003915649283
H           -0.79136942190575       -4.89476027717899       -0.98390490583798
H            1.33355173616817       -3.75604347556914       -2.31559941948278
H            2.94089782886211       -2.19492779328350       -3.36186605275757
H            2.60024872544138        0.23002124290638       -3.22421806837472
H            0.69158011445045        1.17361862521587       -1.99044451549543
H           -3.55190437922354        0.54935124357616       -0.81905627681582
