53
 energy: -84.809810476720 gnorm: 0.000062110156 xtb: 6.7.1 (edcfbbe)
N            5.55905037281335        3.37920235922503        0.40914536213125
C            4.47074106424628        3.00106558311027        0.24167395800173
C            3.18924008370451        2.54719741301271        0.01315417251087
C            2.18842263230111        3.41973646989488       -0.55829193312632
C            0.91664263622688        2.98758882679057       -0.73517107161212
C            0.53703727135074        1.65637708370407       -0.41086638249550
N           -0.71285964100325        1.17455418673551       -0.75452816823152
C           -1.92214859225978        1.75954905971587       -0.42959838109799
C           -2.17574649192785        2.95462468359579        0.23277263587565
C           -3.49327035796281        3.28816335821734        0.48952590025832
C           -4.53996537329879        2.45064365146809        0.10173894629586
C           -4.29524111294930        1.24653721806973       -0.53623684375516
C           -2.98186920075202        0.88847920112749       -0.80188026890442
C           -2.37257671040885       -0.26380269643485       -1.40165337116759
C           -2.87108705250903       -1.42693840463314       -1.96993090644022
C           -1.98085140137805       -2.32220069762025       -2.53846488784314
C           -0.61324870909894       -2.05306931261000       -2.57743566899516
C           -0.09293416593924       -0.90619742496977       -2.00442412710211
C           -0.97243691789527       -0.03651761361657       -1.37493767578054
C            1.52555593308867        0.79102353163617        0.19660968600788
N            1.13620890171187       -0.46962430272033        0.65301896321116
C            1.75474166677209       -1.66517420650952        0.34693037947934
C            2.90799981379578       -1.90183722070760       -0.39147273478651
C            3.28688017204504       -3.21577041675017       -0.59629407474443
C            2.53732121795965       -4.27428870748446       -0.08675499436780
C            1.37436923816613       -4.04643885506837        0.62880723156519
C            0.97566427275132       -2.73708857351726        0.84848731949819
C           -0.15287441355056       -2.14539463106768        1.51631234083858
C           -1.23221387043106       -2.66633573431614        2.21348631049806
C           -2.13246244692117       -1.78839720774811        2.79269454983699
C           -1.94565304874447       -0.41110090134301        2.71136116100682
C           -0.87737904723004        0.12964684318797        2.01885397224140
C           -0.00588237998275       -0.74499566409451        1.38469877664372
C            2.80832969830176        1.23213941325077        0.38216730714610
H            2.48513374253342        4.41740583304777       -0.84422648261929
H            0.18236282284538        3.63065820491794       -1.19654112272715
H           -1.37287400917330        3.60207488222395        0.55033887212766
H           -3.71474633380771        4.21139626626035        1.00300041112684
H           -5.55648186114035        2.74569394885810        0.31482491642520
H           -5.10753220039674        0.59306551242643       -0.81477221391514
H           -3.93218071605072       -1.62305064639371       -1.97590556505642
H           -2.35058802649415       -3.23404370631562       -2.98272074707492
H            0.05228639264347       -2.74669284483132       -3.06788406343783
H            0.96207879065406       -0.68727649427760       -2.06853625600907
H            3.49113197640289       -1.08993278130957       -0.79914104352255
H            4.18190551020719       -3.42346193688125       -1.16322034208217
H            2.86789560754690       -5.28696521850646       -0.26247480265111
H            0.78532771770801       -4.86865527451722        1.00466666185041
H           -1.36035915886475       -3.73353072014596        2.30835575849288
H           -2.98222265523693       -2.17450424612872        3.33514976516259
H           -2.64281932175692        0.25055583024610        3.20266092033867
H           -0.72059183468103        1.19700608253507        1.99079235635521
H            3.53288275811981        0.60256544958351        0.87778290948839
