53
 energy: -84.908128188129 gnorm: 0.000043919773 xtb: 6.7.1 (edcfbbe)
N           -2.33525377239713       -6.31374232974136       -0.58347281755942
C           -1.72472884128828       -5.36446852485845       -0.37488539102462
C           -0.97386553844914       -4.19755224689996       -0.11298417553480
C            0.28166026009885       -4.29170152557854        0.49252250049112
C            0.99862467864297       -3.14268841990827        0.74932201711147
C            0.49339001773823       -1.88627472034874        0.41541801921419
N            1.23523148136414       -0.74253997180763        0.71366296526831
C            0.75878793080020        0.39169896356593        1.34930556010806
C           -0.43690003391034        0.58268873705777        2.02391742355098
C           -0.66193862336355        1.81923462989161        2.59913528788086
C            0.28682979712090        2.83572653858685        2.52696109805335
C            1.50273271420401        2.63060416398895        1.90406772540782
C            1.74956063827565        1.39676663122129        1.31772152801584
C            2.88384861878617        0.83279944340728        0.63786578675138
C            4.13430953130776        1.32992489346043        0.29557864245739
C            5.00983625079265        0.50835064939988       -0.38759533632558
C            4.64694443424216       -0.78919187857871       -0.73940210794739
C            3.40674883367715       -1.30524645204231       -0.41073474540115
C            2.53176240641024       -0.49026278523478        0.29157631323253
C           -0.76189718356994       -1.79371491037972       -0.22220882445021
N           -1.28411393879333       -0.55687617438497       -0.61504921114690
C           -0.61619300241338        0.40842077400515       -1.34795777632884
C            0.58994784930662        0.31910628709259       -2.02540320095627
C            1.03355925760725        1.43942160104360       -2.70223428801869
C            0.28734004438667        2.61486198085129       -2.72582534222491
C           -0.94063210209719        2.69022806239868       -2.09775884372508
C           -1.40589868941898        1.57717925369774       -1.41045901045739
C           -2.61698020028327        1.29216310165966       -0.69071099258060
C           -3.75420856069284        2.03548723911335       -0.40352982193088
C           -4.75646890146679        1.45067359843613        0.34563025227813
C           -4.63074327814837        0.14580016018550        0.81585390956064
C           -3.50777570543269       -0.61347241619341        0.54317128803357
C           -2.50650608689487       -0.03613888140168       -0.22327147123197
C           -1.48565898254260       -2.95166375795393       -0.47143610306899
H            0.67532080715008       -5.25819314295414        0.76713675756649
H            1.95539575077568       -3.20196809576069        1.24532333227011
H           -1.16804778655652       -0.20616671397833        2.11242887156379
H           -1.59261554192014        1.99618663748355        3.11771570163013
H            0.07257122273138        3.79077901309327        2.98332918743981
H            2.25048604386573        3.40871633513772        1.87747679421102
H            4.41033092083132        2.34045697053931        0.55599358233248
H            5.98782141160653        0.87563018398166       -0.66153906843213
H            5.34701838229917       -1.40602523998708       -1.28359808903312
H            3.13237074914617       -2.30737026676475       -0.70510632704588
H            1.16410121115386       -0.59469548902372       -2.03858247627725
H            1.97716493035257        1.39769567040880       -3.22600407075609
H            0.66972025407157        3.47203945249971       -3.26006539931124
H           -1.53248087308703        3.59189081261538       -2.14353303041632
H           -3.84691058164750        3.05112355735012       -0.75731492305741
H           -5.64998755554159        2.01116172538043        0.57770381875663
H           -5.42598874908293       -0.28330882543015        1.40776473232477
H           -3.41721962752439       -1.61970293054808        0.92578086185285
H           -2.44040127225180       -2.88385536779601       -0.97170511311757
