  109
       -164.29377256
 C          6.7125350259        2.7224048084        0.4883765583
 C          7.1353990211        1.3312478336        0.1242202240
 C          8.4798333858        1.0149079696        0.0126294886
 C          8.8905150224       -0.2730211475       -0.3144001820
 N         10.2567961557       -0.5736660074       -0.4057461985
 C         10.8951055718       -1.6113557922        0.2429107411
 C         10.3817825516       -2.5482345975        1.1285398852
 C         11.2553198643       -3.4744422087        1.6651390005
 C         12.6099361050       -3.4705754714        1.3397511902
 C         13.1304579602       -2.5270827992        0.4763856460
 C         12.2724994392       -1.5853782008       -0.0757388493
 C         12.4635581146       -0.4752489020       -0.9668409772
 C         13.5708948514        0.0426860337       -1.6249109027
 C         13.3991004334        1.1386586251       -2.4470401387
 C         12.1408882118        1.7089809281       -2.6276629092
 C         11.0239966508        1.2117975041       -1.9838898804
 C         11.1942440254        0.1241277479       -1.1391439300
 C          7.9381810343       -1.2617953113       -0.5371533733
 C          6.5976676114       -0.9550742858       -0.4149459631
 C          6.1830184489        0.3299529037       -0.0858961961
 C          4.7375327921        0.6179000718        0.0454650722
 C          4.0823386406        1.3465252687       -0.9403399124
 C          2.7313457574        1.6149911744       -0.8496310622
 C          2.0133133305        1.1577991945        0.2519524907
 N          0.6444470908        1.4205446206        0.3676311399
 C          0.0459057669        2.6585374575        0.2484664961
 C          0.6191144934        3.8981610211        0.0028331319
 C         -0.2171293671        4.9986465975       -0.0440790150
 C         -1.5886766199        4.8775257428        0.1583655393
 C         -2.1615258093        3.6481932472        0.4326766091
 C         -1.3433240487        2.5312036825        0.4853858927
 C         -1.5862203554        1.1378880616        0.7575233642
 C         -2.7301736248        0.4244919681        1.0600384709
 C         -2.6348768288       -0.9655300291        1.2149279532
 C         -3.7909868746       -1.8069367461        1.5391857083
 O         -3.5910411380       -2.8212682916        2.2674271127
 C         -5.1050964874       -1.4653669986        1.0722047438
 C         -6.2115607933       -2.1148370843        1.6753724347
 C         -7.4915076212       -1.8663253791        1.2620443029
 C         -7.7291276408       -0.9716206726        0.2122448648
 N         -9.0590973938       -0.6960391622       -0.2153977323
 C         -9.5406058811       -1.3112860086       -1.3506663896
 C         -8.7229395618       -2.2162905674       -2.0429294417
 C         -9.1687265276       -2.8382134806       -3.1865395625
 C        -10.4436351595       -2.5753478485       -3.6632375263
 C        -11.2605808845       -1.6982486072       -2.9738332995
 C        -10.8395086389       -1.0570663014       -1.8172902452
 C        -11.7854830762       -0.1252122703       -1.0897523764
 C        -12.1851309098        1.0189320316       -2.0408752401
 C        -13.0323300494       -0.9250294665       -0.6664830675
 C        -11.1486653346        0.4747466477        0.1458638353
 C        -11.8757376000        1.3537332330        0.9364141649
 C        -11.3350496789        1.9417294040        2.0652182250
 C        -10.0250337736        1.6598036390        2.4203174187
 C         -9.2796099650        0.7915005085        1.6559935058
 C         -9.8288909007        0.1787809277        0.5202417525
 C         -6.6485240573       -0.3590185966       -0.4300040720
 C         -5.3638461220       -0.6003155445       -0.0128391583
 C         -1.3680381241       -1.5859316260        1.1583353971
 C         -0.2226898402       -0.8839025537        0.8725291051
 C         -0.3294729700        0.4915541258        0.6771276871
 C          2.6683632556        0.4352863838        1.2456550012
 C          4.0211430190        0.1550419808        1.1540838368
 C          4.7077518261       -0.6177582442        2.2392765475
 H          7.5542228701        3.2924029639        0.8740843137
 H          6.3208297318        3.2405739452       -0.3867773967
 H          5.9231999676        2.7012093567        1.2379284267
 H          9.2268594990        1.7722612996        0.2020729585
 H          9.3367264824       -2.5480800326        1.3996611915
 H         10.8801076462       -4.2158454336        2.3550208705
 H         13.2596869496       -4.2131485304        1.7784650422
 H         14.1829191454       -2.5149012767        0.2361966960
 H         14.5434284543       -0.4080385956       -1.4962486048
 H         14.2478736749        1.5582346354       -2.9663060830
 H         12.0356068183        2.5564870725       -3.2889185783
 H         10.0497954935        1.6490974552       -2.1431370867
 H          8.2518258537       -2.2570304224       -0.8130698295
 H          5.8540114419       -1.7185898831       -0.5912802747
 H          4.6404389014        1.6891674419       -1.7996362277
 H          2.2247770667        2.1563926853       -1.6339765022
 H          1.6847479835        4.0055946698       -0.1325307601
 H          0.2049444856        5.9737332689       -0.2377494301
 H         -2.2099517513        5.7593550444        0.1099329620
 H         -3.2230922098        3.5574284284        0.6066281486
 H         -3.6703975392        0.9356945537        1.1934684592
 H         -6.0060811862       -2.8100789302        2.4749674537
 H         -8.3310178447       -2.3563505248        1.7344251455
 H         -7.7346589558       -2.4263542637       -1.6663305969
 H         -8.5233865572       -3.5299683733       -3.7057582885
 H        -10.8018725230       -3.0547102602       -4.5610467288
 H        -12.2543587551       -1.5137046999       -3.3524013487
 H        -12.6587640528        0.6292531671       -2.9373896528
 H        -12.8797994563        1.6996276600       -1.5569810375
 H        -11.3012904195        1.5815738556       -2.3355038778
 H        -12.7441615761       -1.7334809355        0.0027077473
 H        -13.5279568535       -1.3559116999       -1.5316769953
 H        -13.7435411092       -0.2877091980       -0.1488003842
 H        -12.8937773201        1.5922912868        0.6684872315
 H        -11.9294124205        2.6192893368        2.6588332421
 H         -9.5846820226        2.1188919641        3.2922089924
 H         -8.2582627106        0.5765235131        1.9270523208
 H         -6.8403053817        0.3015141135       -1.2643999184
 H         -4.5417917725       -0.1552277847       -0.5527102733
 H         -1.3278977936       -2.6522572446        1.3188203041
 H          0.7273792724       -1.3891378345        0.7837347440
 H          2.1100891340        0.1083625114        2.1107051304
 H          4.0912766153       -0.6548454981        3.1339475687
 H          5.6675531725       -0.1672420829        2.4858814330
 H          4.8981205172       -1.6400782024        1.9135848943
