  45
        -68.60225995
 C         -2.2777089138       -2.5694742599       -2.5913431348
 C         -0.8931807547       -2.5936419504       -2.6138092362
 C         -0.1810294867       -1.7560010025       -1.7738344994
 C         -0.8272961021       -0.8897676832       -0.9068928011
 C         -2.2235390183       -0.8678389428       -0.8883886135
 C         -2.9396572367       -1.7126752100       -1.7354916933
 N         -2.8942409471       -0.0176006635       -0.0388009579
 C         -2.2594302084        0.8501361715        0.8205022789
 C         -3.0104460658        1.6898687054        1.6419299660
 C         -2.3844174113        2.5635863940        2.5076371077
 C         -1.0014091560        2.6105277980        2.5651142528
 C         -0.2546313221        1.7780400034        1.7504540821
 C         -0.8646206011        0.8946400109        0.8745865938
 C          0.0000018685        0.0040565765        0.0001241552
 C          0.8628501390        0.8972916086       -0.8734027300
 C          0.2511623851        1.7814214866       -1.7473030463
 C          0.9962731639        2.6163401746       -2.5609108889
 C          2.3793252132        2.5710350671       -2.5045417042
 C          3.0070803317        1.6965204557       -1.6409658086
 C          2.2577331203        0.8543992927       -0.8204473854
 N          2.8942609337       -0.0141587437        0.0367854519
 C          2.2252580304       -0.8656776190        0.8864291668
 C          2.9430479554       -1.7102739385        1.7324047558
 C          2.2828141461       -2.5681877308        2.5885094991
 C          0.8982936032       -2.5937642199        2.6122750553
 C          0.1844610360       -1.7564609811        1.7732851134
 C          0.8290539775       -0.8890881234        0.9061925442
 H         -2.8440322179       -3.2198160069       -3.2414484995
 H         -0.3711558668       -3.2616572770       -3.2815907164
 H          0.8993393910       -1.7714943881       -1.7870705316
 H         -4.0207074851       -1.6884796442       -1.7127425225
 H         -3.9024372668       -0.0236680296       -0.0539058153
 H         -4.0899322585        1.6480046020        1.5917543367
 H         -2.9776557108        3.2092820498        3.1382996642
 H         -0.5074809107        3.2923779129        3.2401391920
 H          0.8247001548        1.8108179255        1.7909836884
 H         -0.8282506304        1.8130057776       -1.7869073303
 H          0.5009625905        3.2985548999       -3.2346252512
 H          2.9712326701        3.2186243841       -3.1343120497
 H          4.0866289406        1.6559701625       -1.5915950031
 H          3.9024644306       -0.0187789929        0.0513303976
 H          4.0239518559       -1.6847904396        1.7087663221
 H          2.8504908048       -3.2179712395        3.2381563464
 H          0.3776015134       -3.2627057612        3.2801861115
 H         -0.8958630134       -1.7731438577        1.7874107522
