  116
       -173.04277423
 C          7.0613995687       -5.0434274580        0.9891410832
 C          7.3148905650       -3.6538152466        1.5897528450
 C          8.3684061050       -2.9471682698        0.7319736117
 C          7.8780353076       -3.7973545064        3.0107027417
 C          5.9998518799       -2.8916289872        1.6527564581
 C          4.9484131486       -3.4011150768        2.4182295135
 C          3.7404837196       -2.7428947520        2.4870253877
 C          3.5504883279       -1.5439258290        1.8037646969
 C          4.5888632553       -0.9748460760        1.0448879421
 C          5.7881199567       -1.7001699475        0.9843455840
 B          4.2965406670        0.3750334110        0.3490499592
 C          5.1772113360        1.3726055208       -0.4386596839
 C          6.5729269264        1.3257770976       -0.5737451851
 C          7.3045331741        2.2382380383       -1.3102703063
 C          8.8174909214        2.1657170819       -1.4503979379
 C          9.4337773219        3.4448734265       -0.8674549689
 C          9.4237910647        0.9657761597       -0.7171021236
 C          9.1793462886        2.0464293515       -2.9374973497
 C          6.6061767126        3.2680471628       -1.9453278065
 C          5.2388278225        3.3754437074       -1.8222554077
 C          4.5236703956        2.4458891088       -1.0705095973
 O          3.1771955841        2.6793054626       -1.0142196075
 C          2.3570924753        1.9168346929       -0.2555573470
 C          1.0121083671        2.2625374991       -0.2402102302
 C          0.1254443050        1.4859391037        0.4982892097
 N         -1.2504548306        1.7536535644        0.4457933504
 C         -1.8306496945        2.9356846916        0.8382929073
 C         -1.2208718892        4.0996279318        1.2748681887
 C         -2.0367164102        5.1717502988        1.5966815849
 C         -3.4239364619        5.0724639276        1.4741486064
 C         -4.0402333865        3.9063713251        1.0647738124
 C         -3.2469392445        2.7979593513        0.7586663204
 C         -3.4992933472        1.4643261145        0.3217525547
 C         -4.7011894737        0.7472092843        0.1040648494
 C         -6.0097462501        1.3389441488        0.3691168960
 C         -6.9605110316        1.4470253597       -0.6481223924
 C         -8.2056388358        1.9824607129       -0.3903450961
 C         -8.5294150110        2.4163777808        0.8862115462
 C         -7.5881125527        2.3281409169        1.8999707652
 C         -6.3370146688        1.8027971925        1.6450011964
 C         -4.5376509841       -0.5573681452       -0.3956885457
 C         -3.2769365306       -1.1070856482       -0.7505934356
 C         -2.0732927359       -0.4053943769       -0.4995098219
 C         -0.7685739731       -0.9773988733       -0.8399293177
 C          0.0648675543       -0.3481793529       -1.7650225270
 C          1.3141896308       -0.8639506139       -2.0460119246
 C          1.7541385996       -2.0164816077       -1.4132040783
 C          0.9219140954       -2.6656625451       -0.5159305851
 C         -0.3319613697       -2.1572143375       -0.2365743513
 C         -2.2317934126        0.8641921503        0.0823273791
 C         -3.5318506226       -2.3812684807       -1.3388502409
 C         -2.7430731810       -3.3637778826       -1.9420629112
 C         -3.3521489413       -4.5147249474       -2.4010342452
 C         -4.7251228137       -4.7243263785       -2.2683335552
 C         -5.5366905905       -3.7589174157       -1.6935227445
 C         -4.9369253698       -2.5899308938       -1.2588965981
 N         -5.5149659538       -1.4827436656       -0.6739716755
 C         -6.8681628473       -1.4279443979       -0.3006362176
 C         -7.8631627469       -1.5735440162       -1.2611378533
 C         -9.1928609304       -1.5247294858       -0.8850363407
 C         -9.5355450444       -1.3361167106        0.4429819496
 C         -8.5433757604       -1.2093631725        1.4020182936
 C         -7.2126547600       -1.2618788711        1.0371966215
 C          0.5771290504        0.4186841485        1.2684110748
 C          1.9184136555        0.0717666604        1.2201600425
 C          2.8374381929        0.8026769415        0.4497746507
 O          2.3001124308       -1.0080154347        1.9376486655
 H          6.6512889543       -4.9494879073       -0.0142234807
 H          6.3585581165       -5.6111659376        1.5921121760
 H          7.9922950826       -5.6038281439        0.9311876780
 H          9.2863471718       -3.5316394054        0.7313743226
 H          8.5981707050       -1.9619777493        1.1300554848
 H          8.0327900531       -2.8488396959       -0.2975107251
 H          8.8308255593       -4.3222771794        2.9857759707
 H          7.1998558161       -4.3539850784        3.6509153179
 H          8.0352606285       -2.8156333625        3.4526304234
 H          5.0633454065       -4.3275258607        2.9598338579
 H          2.9207874749       -3.1442798668        3.0637506777
 H          6.5686291693       -1.2978528446        0.3654540588
 H          7.0848149653        0.5386706354       -0.0519605909
 H         10.5181701176        3.4110202156       -0.9497452200
 H          9.1694464758        3.5432733884        0.1832962222
 H          9.0791396726        4.3277807364       -1.3914784317
 H          9.0306701319        0.0306938599       -1.1082688942
 H         10.5027320562        0.9618384063       -0.8586925617
 H          9.2260382803        1.0196994077        0.3506875917
 H          8.8320978973        2.9080356825       -3.5001549801
 H          8.7246737574        1.1547823205       -3.3639524503
 H         10.2584228328        1.9747580161       -3.0565416065
 H          7.1308285889        4.0041985249       -2.5346366812
 H          4.6996431569        4.1807393626       -2.2978910610
 H          0.6596621388        3.0899613843       -0.8352192954
 H         -0.1470593580        4.1670921579        1.3570537025
 H         -1.5957473200        6.0959341639        1.9364037987
 H         -4.0314804634        5.9337268904        1.7110504995
 H         -5.1131137451        3.8578962530        0.9760284846
 H         -6.7040815714        1.1252650321       -1.6474361432
 H         -8.9291731615        2.0649454027       -1.1882226146
 H         -9.5074862660        2.8264962354        1.0877735738
 H         -7.8326513040        2.6703035127        2.8952557412
 H         -5.6058014746        1.7251706071        2.4367062506
 H         -0.2781596516        0.5463757883       -2.2643336152
 H          1.9528186127       -0.3636509341       -2.7593517482
 H          2.7408866789       -2.4047183862       -1.6171610900
 H          1.2580239826       -3.5665836001       -0.0236234243
 H         -0.9752943111       -2.6554389870        0.4742248335
 H         -1.6803005442       -3.2245947084       -2.0523676731
 H         -2.7497797958       -5.2788351858       -2.8702495280
 H         -5.1616025220       -5.6451822755       -2.6228108379
 H         -6.5996320181       -3.9153902033       -1.5890948112
 H         -7.5877905062       -1.6989142685       -2.2978779121
 H         -9.9634650580       -1.6286972071       -1.6341484022
 H        -10.5743814183       -1.2921205807        0.7319555969
 H         -8.8071386095       -1.0739230447        2.4397925233
 H         -6.4331090528       -1.1751920405        1.7788730438
 H         -0.1104946410       -0.1587473235        1.8645656977
