116
 energy: -173.102488799461 gnorm: 0.000141722446 xtb: 6.7.1 (edcfbbe)
C            9.25802604865779       -2.26857103376327       -2.77316495027086
C            8.84724993931314       -2.36350926767982       -1.29603128735783
C            9.49018378504427       -1.19259647114410       -0.54680693356950
C            9.38387367815183       -3.66908969260618       -0.69041799010880
C            7.32760569887583       -2.36021646410581       -1.20290561797741
C            6.60304259547797       -3.37494130819801       -1.83286807937148
C            5.22851324308219       -3.41856592345479       -1.74943035222454
C            4.53469461321997       -2.43816713522780       -1.04521098831149
C            5.21257649173832       -1.37361996185538       -0.42418906854070
C            6.61346915764848       -1.39277851296977       -0.51889621501539
B            4.35010972441059       -0.31681146067467        0.30894013428631
C            4.67647045057721        1.03637903020134        0.98770293082627
C            5.90645532841909        1.71294723423378        0.95977203656611
C            6.14336975406210        2.91064953869183        1.61056955047978
C            7.48688511506876        3.62608898365187        1.57532802867246
C            8.52811751004720        2.89227408996761        0.72496705033593
C            7.29389955752002        5.03089852352707        0.98475932055648
C            8.03088904823170        3.73475030767341        3.00770678166243
C            5.08903132506559        3.47328607571285        2.33371860460575
C            3.85283566313045        2.86599517821066        2.36921169499438
C            3.63747294771607        1.66668714983632        1.69561855011177
O            2.35413395473810        1.19217383766344        1.78940536461921
C            1.95496063593182        0.09639139343018        1.10102075640062
C            0.60584065955934       -0.21856990313331        1.15213893033696
C            0.13755678194643       -1.31620722717285        0.43565958651930
N           -1.23594198336840       -1.60939738677569        0.43676034647808
C           -1.76841291516419       -2.78323182382856        0.91935975973385
C           -1.11069435437795       -3.89765293679975        1.41311396339526
C           -1.88228812330075       -4.97357758335712        1.82122899025692
C           -3.27447969109469       -4.92731431240687        1.72735481489225
C           -3.93766117218606       -3.80831132289519        1.26243324769912
C           -3.18928646870301       -2.69634674783252        0.86880581974374
C           -3.49743011585166       -1.39983872066007        0.35797619926094
C           -4.72747655028986       -0.73828746653789        0.12738091873643
C           -6.00814406699736       -1.36242945941549        0.45900460140269
C           -6.29698981783530       -1.74265010301818        1.77086757877826
C           -7.51237333290016       -2.32048178635431        2.08189116103942
C           -8.45345504180111       -2.54542581487869        1.08927611044995
C           -8.16837698954624       -2.18923363591097       -0.22001162360020
C           -6.96067368713409       -1.59867254547121       -0.53370201466343
C           -4.62255980695747        0.53536142288498       -0.46050115138993
C           -3.38735961311968        1.10467856463867       -0.87608887026894
C           -2.15655744849995        0.46313482872448       -0.60735238005932
C           -0.87900298496782        1.05930577533649       -1.00820377466342
C           -0.47253629423776        2.28475304830582       -0.47955628370265
C            0.74620242321022        2.83141792072554       -0.83284183598547
C            1.57230236282562        2.17317871623056       -1.72932559724239
C            1.16495558038042        0.96796283919667       -2.28060969232073
C           -0.04911412851510        0.41431803209163       -1.92522538142243
C           -2.25595246535196       -0.77524630670897        0.05016409360876
C           -3.70067794730814        2.32867232512926       -1.54208215268287
C           -2.96082350126632        3.29826557762888       -2.22184768738179
C           -3.62106397889508        4.39424545261913       -2.74388978722511
C           -4.99859128612176        4.56001131055388       -2.59987751040897
C           -5.76242694246105        3.60499010440953       -1.94707032891723
C           -5.11072587528260        2.48988294582032       -1.44784107603607
N           -5.63726217467982        1.40316050789823       -0.78068953851375
C           -6.98460721773530        1.33358785626954       -0.38053891537296
C           -7.30442985877867        1.27670725673517        0.97227014020201
C           -8.62907572270965        1.24238809776005        1.36287417766674
C           -9.63829778990756        1.27419206236307        0.41373493358212
C           -9.31952960122352        1.34361196211451       -0.93209149636221
C           -7.99651174762306        1.37611728871594       -1.33361471225805
C            1.01580992235617       -2.12939143045405       -0.27467230871137
C            2.36578543330123       -1.80811621047835       -0.29690372917380
C            2.87017232453694       -0.68332623258429        0.37472912565222
O            3.17518964153932       -2.62002590941360       -1.01977435550305
H            8.85886826641643       -1.35814791154199       -3.21631762277075
H            8.88654048254185       -3.11562697925907       -3.34352988001881
H           10.34256655380917       -2.24879010451859       -2.86006718604108
H           10.57269087715991       -1.25167296336705       -0.64306351753207
H            9.24495469095506       -1.22518199024166        0.51234049103503
H            9.16820204534481       -0.24026577760354       -0.96096724611796
H           10.47109875497078       -3.68370567518850       -0.73484706324163
H            9.01002563409026       -4.53800938168959       -1.22503738016503
H            9.07896730178685       -3.75307216916386        0.35107449029967
H            7.11025472890294       -4.15005543574055       -2.38668084968529
H            4.66670553272827       -4.21270104542910       -2.21933360526997
H            7.14398344814005       -0.60930224678300       -0.00873117821689
H            6.69348985471813        1.26407174057534        0.38116113560096
H            9.46121351055928        3.45252727716596        0.73196310017166
H            8.19713840028214        2.80361322169499       -0.30732604352760
H            8.72960190032167        1.90114594386074        1.12389344665343
H            6.61626155553977        5.62682167394381        1.58997585531249
H            8.24901005618678        5.54981397180335        0.93251669519523
H            6.88241344987470        4.96226837589527       -0.02054915711959
H            7.35968707422202        4.30476825872738        3.64434743501411
H            9.00005535968031        4.22963760885334        3.00439259392484
H            8.15012270580357        2.74319900971630        3.44036677241636
H            5.22284113923068        4.40119166965776        2.86847823520932
H            3.02950951776397        3.30878492098306        2.91054835314005
H           -0.06924726944411        0.39476577520513        1.72703397280804
H           -0.03335276445824       -3.92598331121380        1.47247854943645
H           -1.40183103633595       -5.85948656280914        2.20755068472487
H           -3.84795794771377       -5.79103316186538        2.03178869434406
H           -5.01345789164119       -3.79875975097998        1.19959791872612
H           -5.56440476084130       -1.56412774099045        2.54482843987196
H           -7.72698508959874       -2.59861441346649        3.10386744984727
H           -9.40194626547375       -3.00048297329297        1.33329173398861
H           -8.89176869495477       -2.37635831423025       -1.00028973954156
H           -6.73397128829110       -1.33795120315477       -1.55762846441126
H           -1.11242282360482        2.79352484961774        0.22718779749714
H            1.05661000510715        3.77325960161412       -0.40379172922689
H            2.52855120430347        2.59698886357183       -1.99858284849275
H            1.79976371390226        0.45780458069045       -2.99090606642652
H           -0.36880738571629       -0.51959773442668       -2.36487073741164
H           -1.89493438888370        3.19339114572454       -2.34206093020882
H           -3.05476201804826        5.14745087890020       -3.27263165754935
H           -5.47605176534212        5.43859512244731       -3.00601941909726
H           -6.82850001335888        3.72845477628571       -1.83327758334121
H           -6.51238391069963        1.26598504728980        1.70573002783850
H           -8.87410526611997        1.19773782279149        2.41323197879995
H          -10.67195769710356        1.24692649717948        0.72349970571330
H          -10.10319917687047        1.36922122206103       -1.67444876974403
H           -7.74007371716105        1.41489036098153       -2.38196526929639
H            0.65527470976202       -2.97928473864703       -0.83272826288358
