116
 energy: -173.188597738179 gnorm: 0.000065892742 xtb: 6.7.1 (edcfbbe)
C            8.06575506534338       -1.13801582533996       -3.02570980504720
C            7.37202389011092        0.19387381720344       -3.34952236543969
C            7.61325055865809        0.51082265402979       -4.82856679537065
C            7.99440019813037        1.32138229273485       -2.51283871777742
C            5.89294565627182        0.07181166204173       -3.00962376073576
C            4.88414574811367        0.18976625022387       -3.96672796802987
C            3.56060398643611        0.02286680067839       -3.62364092781151
C            3.19940588482723       -0.25370264780915       -2.30634387972411
C            4.17555617130222       -0.32558161553510       -1.29603032324656
C            5.50679390936748       -0.17831822212238       -1.70282349619133
B            3.67432851843188       -0.58426679808873        0.14479213276735
C            4.36455401860809       -0.54914585522419        1.52953292714766
C            5.64433176285128       -0.05761254651379        1.81222324493261
C            6.21409919530718       -0.06525262128249        3.07510149474601
C            7.60319624821953        0.52326442101617        3.28049111124455
C            8.60550009617405       -0.20776034920602        2.37536779675265
C            7.56521566380682        2.01550927898526        2.91680625461818
C            8.08943841744406        0.39681070543551        4.72750268901005
C            5.46229364095379       -0.61098350483444        4.11647023669963
C            4.18615798519227       -1.08092415676193        3.89694400394674
C            3.62381429100378       -1.03392462670835        2.62274895949131
O            2.33134368355953       -1.47548204169405        2.55280748213298
C            1.60377646737200       -1.35369809032096        1.41917543594019
C            0.24746573762714       -1.64268026253525        1.50047398855719
C           -0.54550663682893       -1.49018942330678        0.36988243272311
N           -1.92777535811128       -1.72084088377048        0.45636554022306
C           -2.49914717688298       -2.93402627106571        0.76521338933266
C           -1.87583016233089       -4.12931326492429        1.09446686109163
C           -2.67728546219325       -5.22115019836108        1.36503299192302
C           -4.06605180047145       -5.12664670380619        1.30752359125048
C           -4.68904148888540       -3.94354587570136        0.96145536318860
C           -3.90608221542563       -2.83074934023917        0.67341851057444
C           -4.19176098498959       -1.47387810064233        0.28542314801537
C           -5.39516374165337       -0.80013936017372        0.06778347877088
C           -6.69602366397372       -1.48888817825258        0.18686806424018
C           -7.55545860458800       -1.19002649810327        1.23820220757624
C           -8.77624522998308       -1.83049109137281        1.34705140389128
C           -9.15348900506793       -2.77420690657824        0.40668651236129
C           -8.29982467279249       -3.08296331858639       -0.63929094568732
C           -7.07643604564350       -2.44729593582514       -0.74724715406891
C           -5.28690537120043        0.55560335923642       -0.22913986225398
C           -4.03595392645069        1.23220252124257       -0.25854155860258
C           -2.83115110292408        0.55485209484306       -0.06049128436392
C           -1.53526399287919        1.26346353500711       -0.08366892343897
C           -0.79689499081321        1.41973501415881        1.08445208054106
C            0.43138997338704        2.05477302811083        1.05557519970027
C            0.93418076747288        2.54472495284788       -0.13806369200531
C            0.19572374609789        2.41125161196055       -1.30224510199373
C           -1.03313215015723        1.77775422246615       -1.27530401764868
C           -2.93760961406120       -0.81095275121618        0.18542168679080
C           -4.33006274838094        2.62432473700683       -0.47198266257752
C           -3.55671541969071        3.77742149171426       -0.55597746547581
C           -4.18474305113788        4.98657946598724       -0.78037408128671
C           -5.56786415907202        5.06381168722370       -0.93092151578356
C           -6.36056154402667        3.93671794499359       -0.84021036205186
C           -5.73541750292881        2.72234714294478       -0.59195717536025
N           -6.29857734387030        1.47405779320228       -0.45287080819019
C           -7.67241294238521        1.21616854337794       -0.62394691399982
C           -8.59859574489817        1.81512583733620        0.22238803939629
C           -9.94998508277052        1.58568894952382        0.03836068778906
C          -10.38319696596855        0.76013475492159       -0.98546592313201
C           -9.46104361050356        0.17102085248557       -1.83454295913106
C           -8.10926557427682        0.40217691740790       -1.66288704020885
C            0.00983007395892       -1.11284142151201       -0.84615178281403
C            1.36785649487732       -0.83224782920243       -0.91368968036974
C            2.19178543977067       -0.93442427612914        0.21692628171087
O            1.86015684046723       -0.44595908059792       -2.11082127985595
H            7.62808780805490       -1.94258070682916       -3.61359860591944
H            7.96457385117357       -1.39327902347255       -1.97449917025821
H            9.12592393306582       -1.07524540971136       -3.26230122873394
H            8.68308574874871        0.59170606870633       -5.01109244972260
H            7.15303884286170        1.45627306629018       -5.10704040436599
H            7.22431304660999       -0.27857350757121       -5.46774476240921
H            9.04319030169239        1.44573040155951       -2.77409646623282
H            7.93411398160210        1.10573228999606       -1.45037437556122
H            7.47761279465505        2.26045075814637       -2.70126839622622
H            5.12056174902175        0.39868951721658       -4.99693343948899
H            2.78132303056844        0.08802938532655       -4.36844806118703
H            6.26524657373241       -0.29042562305556       -0.94585237672935
H            6.19657797303981        0.37021515514055        0.99195429236509
H            9.60832490436749        0.18216629603112        2.53666433028412
H            8.35798150231763       -0.08029700162972        1.32588929775017
H            8.60883327662182       -1.27278469202697        2.59910921811182
H            6.85141726672078        2.53866853708811        3.55037438775571
H            8.54693662085951        2.46159618179042        3.06186515665769
H            7.27154932035807        2.16452062591918        1.88144939583208
H            7.43413637852860        0.93297649971866        5.41026014273367
H            9.08525762072524        0.82745901363196        4.81298306615776
H            8.14761499969750       -0.64585508390063        5.03184281141612
H            5.85755466841938       -0.66058899315925        5.11753904484767
H            3.59363902061536       -1.47807307218535        4.70781175191442
H           -0.18519048135244       -1.94163231025189        2.44221754472261
H           -0.79923036735349       -4.19980232852809        1.13738129663833
H           -2.21952325036986       -6.16390293856884        1.62771210567422
H           -4.66469654984316       -5.99662390972053        1.53489941007803
H           -5.76497170297887       -3.88510852356812        0.91838547431265
H           -7.25795508542018       -0.45762822945475        1.97529264610659
H           -9.43577433250895       -1.59175824222698        2.16880098556557
H          -10.10924699027378       -3.27052201640211        0.49081071578213
H           -8.58724580312361       -3.82251332685106       -1.37293080518144
H           -6.40631233235025       -2.68946132579310       -1.56016677308107
H           -1.19161430244676        1.04117400223780        2.01660112764975
H            0.99994371099752        2.16622342247775        1.96787539430732
H            1.89814235204013        3.03214747088464       -0.16028570845117
H            0.58059625595192        2.79845821402271       -2.23474675168205
H           -1.61020676989291        1.67062121789315       -2.18296179814869
H           -2.48490406992373        3.72985640401804       -0.44536887253679
H           -3.59467622036970        5.88927335870869       -0.84462368787439
H           -6.02832893309631        6.02287403745935       -1.11935594117017
H           -7.43214095352252        3.99625507890471       -0.95896429996567
H           -8.25197262788110        2.45013322410799        1.02477227036324
H          -10.66627869384840        2.04961188425147        0.70051759798699
H          -11.43849151671535        0.57855239450807       -1.12387709862686
H           -9.79588242133189       -0.46544072648755       -2.64002304416191
H           -7.38580926591648       -0.04198122337145       -2.32995730442790
H           -0.60396490526454       -1.02323675796973       -1.72781164277746
