116
 energy: -173.102466130678 gnorm: 0.000077431659 xtb: 6.7.1 (edcfbbe)
C            7.28046129245703       -5.00852242439472        1.16734881797344
C            7.47293851379009       -3.58565739132346        1.71302931519787
C            8.51627727653051       -2.87994052386041        0.84173910112851
C            8.01388168844189       -3.64905512392145        3.14926250497849
C            6.13003577379813       -2.86831997119048        1.72336642253750
C            5.07330412791351       -3.40877394950639        2.45982945670221
C            3.83777120142304       -2.79941599736335        2.47474450544262
C            3.62552305091487       -1.61958819681196        1.76662371432907
C            4.66692759747316       -1.01096635702467        1.04343914252279
C            5.89626609652648       -1.68929142125874        1.03824245187924
B            4.34325557287004        0.32165928653871        0.32375076698920
C            5.20802804111653        1.35520747976600       -0.43918952098021
C            6.60918012874638        1.37126295131204       -0.53043789576800
C            7.32546585887191        2.31589747997240       -1.24344980646267
C            8.84532087514414        2.31539037712588       -1.33335986573190
C            9.38191988000565        3.64730673834823       -0.78788538684630
C            9.48670408244518        1.18042512266440       -0.52945448275823
C            9.25787081964772        2.15227066366860       -2.80402297293864
C            6.60263871428349        3.30859509606687       -1.90948804824414
C            5.22801383475263        3.35574266910616       -1.83029520381183
C            4.53206815245662        2.39990420171390       -1.09506352295075
O            3.17273399022035        2.58385034498721       -1.07760032527842
C            2.36110892481042        1.79494667325012       -0.33218034623114
C            1.01104371623774        2.11693949241989       -0.32360670643098
C            0.13080424248118        1.32511078400089        0.40786379402771
N           -1.24328148455628        1.61503224849563        0.39519740272322
C           -1.78196488509383        2.79888285933357        0.84512294747851
C           -1.13000061767653        3.92920791399018        1.30923334330853
C           -1.90730370580446        5.01122781559859        1.68951140316457
C           -3.29927090030302        4.95481499905064        1.59783499773343
C           -3.95661162737408        3.82062077498047        1.16224893071140
C           -3.20241046056387        2.70305436968951        0.79654366521754
C           -3.50363532844717        1.39206555381045        0.31964217599293
C           -4.72992874777342        0.71868864130083        0.10317334954099
C           -6.01529528052123        1.34514150588445        0.41170466030901
C           -6.96288957073954        1.55027234079927       -0.59260051796403
C           -8.17558590281794        2.14233220059404       -0.30194592459473
C           -8.47068663269713        2.53101453356133        0.99582826018878
C           -7.53467151607908        2.33701155272858        1.99968262155704
C           -6.31431351933721        1.75777862511360        1.71137038098657
C           -4.61735371673190       -0.56927575189724       -0.45117626034984
C           -3.37859868039010       -1.14314383857346       -0.84919412906218
C           -2.15149605234730       -0.48923300714698       -0.59373990582394
C           -0.87033812078582       -1.09136462973764       -0.97363573584609
C           -0.03949674437760       -0.47004123412766       -1.90594363920136
C            1.17741471282283       -1.02979760670646       -2.24159264071470
C            1.58684295404234       -2.21736717892688       -1.65473164759274
C            0.75984975351968       -2.85244964291640       -0.74248962852393
C           -0.46180786821731       -2.29997707626059       -0.40902867517094
C           -2.25864971544430        0.76549438603633        0.03053850991873
C           -3.68454528211118       -2.38456310867722       -1.48543620553693
C           -2.93835880029218       -3.36634339336779       -2.14028627226966
C           -3.59220646728246       -4.47721189257313       -2.63829811646914
C           -4.96933396395026       -4.64588745869099       -2.49383606603809
C           -5.73928519947549       -3.67955939586196       -1.86524016672093
C           -5.09410786972806       -2.54998617109866       -1.39079738318902
N           -5.62730598018783       -1.44952162988893       -0.75196097031396
C           -6.97499973834340       -1.37667388170428       -0.35365863602593
C           -7.98708065034063       -1.44778978140098       -1.30480210315773
C           -9.31005520857337       -1.41146915755614       -0.90344243950403
C           -9.62858345970486       -1.31049562567148        0.44045801525050
C           -8.61910867059221       -1.25026672513195        1.38795463476279
C           -7.29452507301630       -1.28769319508250        0.99754658307540
C            0.59684119103460        0.24990145925965        1.15891791380749
C            1.94597625591156       -0.06657253657258        1.12133956410354
C            2.86327819755632        0.69061353364031        0.37422503218772
O            2.34255575969590       -1.14137036083649        1.84334784446827
H            6.87532419714908       -4.97212567399614        0.15778908689207
H            6.59796216661379       -5.58323542239854        1.78737930899618
H            8.23480909203371       -5.53063869893347        1.13819086423530
H            9.44843497565062       -3.44121353685703        0.86707641974067
H            8.71890685293301       -1.87734425121407        1.21027532369273
H            8.18654081640492       -2.82262008267712       -0.19318687321357
H            8.98228416128276       -4.14522492454095        3.16391037344941
H            7.34038176597055       -4.19725942260258        3.80247068734158
H            8.13380414904393       -2.64432139504403        3.55014881898303
H            5.20471834287242       -4.32095542301807        3.02156688630038
H            3.01258784159839       -3.22549074371999        3.02658547271199
H            6.68540607731564       -1.25785324748587        0.44930599426179
H            7.13805104866262        0.60468188541301        0.00647607598173
H           10.46937898338778        3.65732863768657       -0.82767978076200
H            9.07248697135758        3.78116478505337        0.24702303529176
H            9.01331568663465        4.49091102224257       -1.36501026770175
H            9.16946946570663        0.20975985027511       -0.90261720076303
H           10.56958859533355        1.23785142068089       -0.62238381805969
H            9.23521907495991        1.25958345600090        0.52578314168766
H            8.88382683301374        2.97047802319787       -3.41347234294846
H            8.86187870634737        1.22082070817258       -3.20426605939147
H           10.34254129227418        2.13192854116663       -2.88910645996502
H            7.11125128070000        4.06367803769305       -2.48906281687134
H            4.66768328016197        4.13407493695980       -2.32761329232529
H            0.65208335965517        2.94953771329322       -0.90809927585707
H           -0.05280711979019        3.96456995213899        1.36758962075732
H           -1.43150332127265        5.90956682991155        2.05214596392520
H           -3.87729806252943        5.82279783895991        1.88076196278665
H           -5.03241099259574        3.80348006153012        1.10076109495289
H           -6.72844045595198        1.26395244125347       -1.60788749802049
H           -8.89498135864698        2.30509458306564       -1.09134153415538
H           -9.42308573273776        2.98710149311548        1.22203225799411
H           -7.75724608620432        2.64028008437809        3.01277127806691
H           -5.58593335915329        1.60308008589573        2.49438505983586
H           -0.36057418879083        0.45003850136665       -2.37290103738838
H            1.81296166192895       -0.53802536968692       -2.96408649878764
H            2.54538859938423       -2.64546650797340       -1.90855937418480
H            1.07155819700288       -3.78091636104543       -0.28607623291634
H           -1.10259097048407       -2.79048627373739        0.30970629252384
H           -1.87259893181866       -3.25930546620880       -2.25987384900633
H           -3.02109885330926       -5.23982794359526       -3.14804373904162
H           -5.44179806584362       -5.53568593453192       -2.88093663537152
H           -6.80505059179915       -3.80551129195095       -1.75131389148325
H           -7.73093147828720       -1.51120552667778       -2.35201610887504
H          -10.09392546495884       -1.45912190700880       -1.64449171208881
H          -10.66220875053394       -1.28064786019603        0.75007721917138
H           -8.86390867296969       -1.18079277393482        2.43701649797179
H           -6.50222928154719       -1.25461306211013        1.73008355908888
H           -0.08022852298534       -0.34599309059401        1.74963848224636
