53
 energy: -95.763769645330 gnorm: 0.000031366253 xtb: 6.7.1 (edcfbbe)
O           -0.60022403815118       -2.11531045364565       -1.31585833692081
C           -1.54474306730184       -1.60073499009360       -0.73627169550990
O           -2.78249703431640       -1.99671256694559       -1.13684880583170
C           -3.91749763098414       -1.46309353433214       -0.62041976379749
C           -5.13976216011644       -1.94777192332826       -1.08153969150018
C           -6.31062590816414       -1.40825420835374       -0.59165993562108
C           -6.27937076961721       -0.38505890686983        0.35330596427215
C           -5.07577536916523        0.09648072359969        0.81384517251432
C           -3.87526355041095       -0.44016775885838        0.33342444171521
C           -2.57737161878820       -0.01040333871864        0.79266180163735
O           -2.57387513417250        0.97408335582450        1.70165654952058
C           -1.44740659560252       -0.60708381648499        0.30597639720102
C           -0.07895152026252       -0.20964985460611        0.84291579646920
C            0.31720140590838        1.12554913861020        0.25319262275099
C            0.25737871128402        1.31591738558287       -1.14249656978931
C            0.56712362431436        2.52547971347754       -1.69264932792806
C            0.94689613785938        3.61686510470923       -0.88150067427498
C            1.27160830974422        4.87961851804324       -1.41894161614869
C            1.63884717774582        5.91279712121273       -0.60163913519663
C            1.69759175514745        5.73036708698836        0.78915552192793
C            1.38657552388270        4.51848899923595        1.34063459318005
C            1.00599428187055        3.43299344109322        0.52412401444189
C            0.67731964846801        2.17101618881801        1.06212129781582
C            0.92412081748503       -1.32812066804836        0.65467625659080
C            2.16664035457677       -1.20880268457677        0.10425484126671
O            2.62825349975992       -0.01336063315419       -0.29532291163320
C            2.99207999885466       -2.39125972957727       -0.03823230197721
C            4.26593532590996       -2.39676146674543       -0.62584263119086
C            4.98051260788711       -3.56694549707712       -0.74682892487080
C            4.44717751066923       -4.76765976381811       -0.28797107450574
C            3.19813842979713       -4.79191754721634        0.29341441170697
C            2.47126194682992       -3.60923747993510        0.41942341202681
O            1.25901009718190       -3.68854438527860        1.02025538239399
C            0.46510583828070       -2.60118978235457        1.16915740977037
O           -0.59157222686429       -2.76132242138596        1.75868169862864
H           -5.14031180848494       -2.73810932990043       -1.81510044644478
H           -7.25774794750234       -1.78354175687892       -0.94720428310297
H           -7.20332949459495        0.02866858092014        0.72609012901306
H           -5.02814493802308        0.88473006916410        1.54790448207718
H           -1.67026700387841        1.24115254501931        1.92529061410294
H           -0.18138537158793       -0.10656874930344        1.93540636848708
H           -0.02111186488867        0.47986889447295       -1.76766866302168
H            0.52433522456304        2.66342566684929       -2.76372010037697
H            1.22461868631330        5.01515481232773       -2.49025682437732
H            1.88698531759958        6.87751439804008       -1.02002497245430
H            1.99023940605232        6.55714293107297        1.42009533197404
H            1.43012006096167        4.37412357593444        2.41093600134516
H            0.73443518747125        2.04033182779623        2.13518481887213
H            3.50816626711965       -0.10177812543751       -0.69060891083480
H            4.70678071063909       -1.48199549182982       -0.99651741678099
H            5.95864620782350       -3.55252467724122       -1.20168226335314
H            5.01039032447404       -5.68228567280829       -0.38602340991361
H            2.75774365638812       -5.70559986397638        0.65904435564587
