53
 energy: -95.762395002246 gnorm: 0.000031140681 xtb: 6.7.1 (edcfbbe)
O            1.77978604510113       -1.54263727654359        1.86241760387503
C            0.90540282983158       -2.06773560800196        1.19703160984387
O            0.96326267376166       -3.41772543824778        1.06001126325372
C            0.02527916349955       -4.11270017138082        0.36728210491222
C            0.16751650390578       -5.49545701085807        0.27755914937098
C           -0.77517254180993       -6.22966101921073       -0.41136825847494
C           -1.86207422203701       -5.60016870555528       -1.01380879891261
C           -2.00744429462023       -4.23471099348178       -0.92815697842421
C           -1.06120773705983       -3.46979509091567       -0.23534032194095
C           -1.16244219493103       -2.03056568838426       -0.11096454209303
O           -2.23759500465756       -1.48851719874026       -0.69080319991780
C           -0.17881316232913       -1.34281926299786        0.54980295026513
C           -0.14319178789859        0.15377862364460        0.82748511988739
C           -1.23717611004935        0.99396990948301        0.19500889654636
C           -1.12447802206962        1.46813957037397       -1.13297537894710
C           -2.09477645405308        2.26309024120049       -1.67471840346940
C           -3.23185477591927        2.63720985084165       -0.92876049247909
C           -4.24509728482846        3.46202684081197       -1.46018120082674
C           -5.32661557563064        3.81158724329755       -0.70066279424529
C           -5.44352863359427        3.35459659317922        0.62252845783345
C           -4.47842184380903        2.55385141076232        1.16622934772653
C           -3.35018743721698        2.17451026504722        0.40829776027866
C           -2.33243982629062        1.35845116639419        0.94262996604473
C            1.21466532487285        0.76229817986104        0.52690140514416
C            2.00193680990487        0.44631896874380       -0.54000955410935
O            1.66965156598070       -0.43967104832164       -1.49677197578609
C            3.28334417445864        1.09102923454877       -0.70007744248462
C            4.14815206780899        0.81549574106234       -1.76551469362966
C            5.36188116234896        1.45750904775575       -1.85363706445467
C            5.73675647368401        2.38400789584757       -0.88363956226646
C            4.89946901872038        2.67014507961226        0.17431602175767
C            3.66868578853531        2.02398463690780        0.26964947984775
O            2.86584243155210        2.33381398841841        1.31850214024238
C            1.65261732324711        1.74788071448749        1.49433341566934
O            0.99829323558718        2.10142794220824        2.45871361683927
H            1.01558923329147       -5.96051643608311        0.75392061749452
H           -0.66697278303707       -7.30084359293803       -0.48151622037305
H           -2.59254532624748       -6.18650496143899       -1.54873164147574
H           -2.84066890418511       -3.72757605339596       -1.38742702401336
H           -2.27190527478940       -0.52583050883575       -0.53797545133438
H           -0.24948791293990        0.26081740806273        1.91712720480579
H           -0.25905528691088        1.21371505967046       -1.72503937675094
H           -1.99413328224103        2.62483472950255       -2.68736056680209
H           -4.14883527396992        3.81197662874162       -2.47788331589632
H           -6.09996825511524        4.44377046723992       -1.11188029452471
H           -6.30435738398781        3.64282052718591        1.20793938771518
H           -4.56173279169971        2.20113042375403        2.18413296658378
H           -2.41885207083040        1.02701641745125        1.96768734174331
H            0.81802959007136       -0.85760297545374       -1.28903703554690
H            3.83967000177069        0.09352800754367       -2.50479627022042
H            6.02641003759526        1.24205184062416       -2.67566456575827
H            6.69013894184878        2.88385213539786       -0.95712081719481
H            5.16964629590302        3.38291273917842        0.93689269662345
