  53
        -95.72676853
 O          1.6918007864       -1.6223204362        2.0255270403
 C          0.8539737933       -2.1083774139        1.2983423112
 O          0.8834089292       -3.4637208654        1.1358071563
 C         -0.0339981349       -4.1204061104        0.3912885713
 C          0.0736128805       -5.5057838977        0.2885701906
 C         -0.8533408567       -6.2073706826       -0.4525431409
 C         -1.8936241373       -5.5424125854       -1.0960925083
 C         -2.0048152429       -4.1747272680       -0.9994628159
 C         -1.0742050718       -3.4423764290       -0.2546912531
 C         -1.1414420435       -2.0014802488       -0.1221951356
 O         -2.1726901555       -1.4173587541       -0.7522592804
 C         -0.1770911555       -1.3459364065        0.5947755667
 C         -0.1088693704        0.1455899588        0.8742342359
 C         -1.1962100594        0.9888718310        0.2433073632
 C         -1.0733712762        1.4583619461       -1.0854312134
 C         -2.0497295325        2.2332143433       -1.6436250962
 C         -3.2002218822        2.5944763550       -0.9117462597
 C         -4.2222099486        3.3960595944       -1.4602837078
 C         -5.3149974307        3.7373010309       -0.7136640641
 C         -5.4348077927        3.2946819932        0.6136970459
 C         -4.4616910717        2.5153419586        1.1732264328
 C         -3.3226362610        2.1437466004        0.4286826595
 C         -2.3005174664        1.3455710927        0.9789792746
 C          1.2439054949        0.7513064769        0.5535193891
 C          2.0340672829        0.4100639163       -0.5016570371
 O          1.7079762624       -0.5321695966       -1.4112104563
 C          3.2938051908        1.0880540798       -0.6974258969
 C          4.1682250062        0.7866575090       -1.7464281979
 C          5.3576034375        1.4659996035       -1.8755321066
 C          5.6981502844        2.4591389524       -0.9613893531
 C          4.8508087161        2.7727199051        0.0800220349
 C          3.6444493013        2.0886320170        0.2186753840
 O          2.8380702128        2.4289088884        1.2485218358
 C          1.6458379428        1.8074006005        1.4676332731
 O          0.9818067394        2.1872049082        2.4108515621
 H          0.8842717191       -6.0007500041        0.7983287879
 H         -0.7710300787       -7.2802263932       -0.5305128188
 H         -2.6142674344       -6.1011469846       -1.6722845125
 H         -2.8023353154       -3.6404806458       -1.4896209447
 H         -2.1564720597       -0.4560347793       -0.5779021211
 H         -0.2019970287        0.2604616019        1.9613767264
 H         -0.1979708518        1.2075078603       -1.6616833081
 H         -1.9460508058        2.5916683922       -2.6572304341
 H         -4.1228919477        3.7355751112       -2.4811013952
 H         -6.0935836649        4.3529549095       -1.1381330303
 H         -6.3033522246        3.5772382194        1.1892470093
 H         -4.5456259291        2.1735899581        2.1945327705
 H         -2.3929770433        1.0215274449        2.0041977749
 H          0.8884051478       -0.9599992568       -1.1101788388
 H          3.8878841691        0.0118450922       -2.4417672446
 H          6.0288630117        1.2275938240       -2.6857638383
 H          6.6324338107        2.9886229102       -1.0658830034
 H          5.0966825895        3.5376581737        0.7988957085
