53
 energy: -95.667873376234 gnorm: 0.000110734198 xtb: 6.7.1 (edcfbbe)
O            2.06968619269116       -1.41357151857181        0.05618138330585
C            1.04227459950695       -2.12690182866809        0.05803679126093
O            1.20424496931981       -3.43032169835685       -0.28228087203039
C            0.13442318003613       -4.28299683337505       -0.30160076292764
C            0.36875962759120       -5.59806096549454       -0.67156998822761
C           -0.68599362222781       -6.49846305553023       -0.69957331925035
C           -1.96866027364994       -6.08985896215651       -0.35508587815268
C           -2.20962495607031       -4.78553672907899        0.01678117834955
C           -1.15803534592929       -3.85510502587281        0.04973496028758
C           -1.32837929670354       -2.49350054639518        0.45239388075185
O           -2.55424789241905       -2.11672143378388        0.86475452482267
C           -0.23561739002632       -1.63966016630839        0.40110156488765
C           -0.29827214956080       -0.17992760934082        0.82107530207791
C           -1.34999341816432        0.64818082999958        0.09952779562541
C           -1.95236064811606        0.22386877475613       -1.10620314618970
C           -2.88901722300262        1.00434686905253       -1.72703049237123
C           -3.26957157376269        2.25094916323082       -1.18924697722210
C           -4.22854614214239        3.07775130362756       -1.81008986792767
C           -4.56795017446986        4.28330684830294       -1.26004479458976
C           -3.96601542745955        4.71532794011143       -0.06687420758304
C           -3.03482462779641        3.93564327353445        0.56122658644804
C           -2.66197350696042        2.68705162330554        0.01867691060479
C           -1.70359517142077        1.86232331789136        0.63865800040695
C            1.05467277901698        0.46967873717906        0.71202291373644
C            1.59286081085548        1.04438729737416       -0.49522524784435
O            0.95428775796482        1.00035784479313       -1.67028277243681
C            2.87247009732131        1.62425635168286       -0.44972429475562
C            3.50697109541134        2.17430814631980       -1.59209616688945
C            4.76073082294368        2.72799101762756       -1.49417860577160
C            5.42742407298777        2.75322670673679       -0.27372996298661
C            4.82576025869755        2.22029128557596        0.86658027962755
C            3.56738622596461        1.66295118088280        0.78422922367373
O            3.01781356476271        1.17056774303387        1.93656941967416
C            1.78032312802775        0.60189901983762        1.94710728803013
O            1.34669374095798        0.22700608334172        3.03313682475282
H            1.37238512047121       -5.89460960139454       -0.93090060137063
H           -0.50139037327369       -7.52043111792157       -0.99082260073665
H           -2.78194299510077       -6.79874531625271       -0.37827009420261
H           -3.19712452877867       -4.45033024321596        0.28955794615001
H           -2.56093958248942       -1.18332834753966        1.11829702682408
H           -0.52312158098827       -0.16737727193205        1.90128614442041
H           -1.68701868405226       -0.73449959809956       -1.53152928332460
H           -3.35049485844815        0.66749910893874       -2.64318213287124
H           -4.68840738275791        2.74132441516723       -2.72781272458503
H           -5.30268919360315        4.91325757858213       -1.73931575015988
H           -4.24719303002214        5.67010172222024        0.35233506435008
H           -2.56905812016566        4.26216662853039        1.47987009839595
H           -1.24477324930657        2.19371938393947        1.55988380207268
H            0.06726956924313        0.61147480701074       -1.57823014840615
H            2.97605271338383        2.14056039008613       -2.52933436828517
H            5.23299186511224        3.14350428657119       -2.37111096700346
H            6.41422761464195        3.18141236906350       -0.19971660001455
H            5.32809365457791        2.23180849668992        1.82065118989789
