53
 energy: -95.679492225117 gnorm: 0.000040517473 xtb: 6.7.1 (edcfbbe)
O           -0.51311998752966       -1.11504653272768        1.79684264568983
C           -1.51605851997698       -0.88450757793690        1.10113152826482
O           -2.71206705038626       -1.16048902734681        1.69132592090055
C           -3.89110636538756       -0.99814145782261        1.01794745685131
C           -5.05808617153304       -1.34176250015648        1.67111413187515
C           -6.28259012239367       -1.18043502857569        1.02669103429025
C           -6.33172908253408       -0.66801563589839       -0.26491990476465
C           -5.17515745004968       -0.32210479417630       -0.92405053582591
C           -3.91946874749759       -0.47668351857386       -0.29348571095948
C           -2.69643802058389       -0.11344541677046       -0.91478444090817
O           -2.75819022462893        0.41102289707953       -2.14194790950448
C           -1.48232222577233       -0.39381450931897       -0.23085587054011
C           -0.14037929912998       -0.22992639887863       -0.91250179791135
C            0.83706832758498       -1.34785877173267       -0.64423132847962
C            0.36077952903458       -2.66884929855736       -0.57271274237820
C            1.21866584996113       -3.71688064507229       -0.37579112013772
C            2.60878786814295       -3.50365270300336       -0.25495417945822
C            3.51895902916199       -4.55688772466122       -0.04388782381742
C            4.86763450453802       -4.30862595760488        0.05399776437852
C            5.35556428280130       -3.00159417433343       -0.05406555705187
C            4.49242830658469       -1.95414971504767       -0.26118163466109
C            3.10280532667221       -2.17725922046528       -0.36482817522140
C            2.19464177729802       -1.12195618435201       -0.57200593911399
C            0.32752231933023        1.16996449982377       -0.56916878409453
C            1.04111574168604        1.52798784624958        0.59823718891319
O            1.30941671128725        0.70570163129540        1.60823437635108
C            1.57371978350436        2.84792405627053        0.67986977819079
C            2.38534603210897        3.27278540585772        1.75356085009158
C            2.86219104283007        4.56246846430314        1.79695353738582
C            2.55380350077324        5.46335262392986        0.78350482941761
C            1.75438489845416        5.07015041663631       -0.28460561367016
C            1.27324453379389        3.77490308410894       -0.33785638796172
O            0.48226353281488        3.43171984877417       -1.39748407095278
C            0.01722719073137        2.16440450152763       -1.54222054699425
O           -0.66028359194168        1.94974299576815       -2.56043110645476
H           -4.99847181891221       -1.73113846881259        2.67484563403957
H           -7.19066433407118       -1.45766731642155        1.53775733028062
H           -7.28438821187918       -0.54304383163970       -0.75626424183569
H           -5.19148342981661        0.07362674545923       -1.92655401727270
H           -1.93960477682391        0.91513625324139       -2.39544710824502
H           -0.31523096995285       -0.23769922109211       -1.99877743223621
H           -0.70041551577682       -2.84835217192479       -0.67090966504004
H            0.83699985201443       -4.72539223562688       -0.31406485647886
H            3.13940460956491       -5.56478788146832        0.03883330883528
H            5.55787513329171       -5.12287246202713        0.21636883276908
H            6.41701513840395       -2.82116537402067        0.02658912016529
H            4.86350219935777       -0.94290797748938       -0.34197350695734
H            2.58719376820825       -0.12047637926753       -0.67504713144341
H            0.72092096905478       -0.10098230335191        1.62237695179416
H            2.61435572966589        2.55811832297803        2.52737384303314
H            3.48177947697894        4.87618344128131        2.62282093910172
H            2.93359808354935        6.47203017763719        0.81795978786530
H            1.49823451689911        5.75370712519050       -1.07810967693139
