  53
        -95.64672219
 O         -0.5404452038       -1.1003589884        1.8608920407
 C         -1.5253581194       -0.8758831227        1.1474693867
 O         -2.7347612492       -1.1472990903        1.7145184784
 C         -3.9005181378       -0.9812689622        1.0275110898
 C         -5.0779924375       -1.3188163374        1.6642861449
 C         -6.2936288090       -1.1545694711        1.0041363698
 C         -6.3247330079       -0.6438346396       -0.2888321011
 C         -5.1592890880       -0.3017381482       -0.9322949920
 C         -3.9117146119       -0.4594830686       -0.2856950610
 C         -2.6820307145       -0.0993043383       -0.8898667310
 O         -2.7078173641        0.4299728812       -2.1111341481
 C         -1.4740884487       -0.3895309350       -0.1916720355
 C         -0.1420244940       -0.2513706074       -0.8890891166
 C          0.8410340110       -1.3588906088       -0.6148327324
 C          0.3669769804       -2.6797682434       -0.5140509417
 C          1.2305456213       -3.7223737241       -0.3292277195
 C          2.6226088625       -3.5049023240       -0.2479803514
 C          3.5409672692       -4.5546763213       -0.0534666453
 C          4.8879066359       -4.3040240598        0.0039934823
 C          5.3706222738       -2.9957894746       -0.1315779595
 C          4.5014849735       -1.9537999575       -0.3208479956
 C          3.1103421257       -2.1789272044       -0.3819487861
 C          2.1948558415       -1.1267091113       -0.5728290493
 C          0.3159756383        1.1524070667       -0.5612694406
 C          1.0231589379        1.5171632775        0.6119962325
 O          1.2742316205        0.7017443151        1.6234429953
 C          1.5543194213        2.8380244420        0.6838709916
 C          2.3401163607        3.2784208106        1.7703893377
 C          2.8140555437        4.5689027982        1.8096105935
 C          2.5302570032        5.4559431111        0.7775435436
 C          1.7577111508        5.0471743179       -0.3044390177
 C          1.2772128906        3.7516039062       -0.3534828457
 O          0.5150380423        3.3964108711       -1.4269133102
 C          0.0351716968        2.1344047155       -1.5577112282
 O         -0.6206303165        1.9053084710       -2.5869774520
 H         -5.0349339400       -1.7069823056        2.6690609678
 H         -7.2092283690       -1.4284966019        1.5031538984
 H         -7.2704753189       -0.5176484454       -0.7929894591
 H         -5.1606994523        0.0926894964       -1.9348647280
 H         -1.8571532411        0.9114278776       -2.3262698232
 H         -0.3250743297       -0.2741514838       -1.9717380734
 H         -0.6955614771       -2.8589151010       -0.5818235583
 H          0.8557556525       -4.7320347342       -0.2471278997
 H          3.1644809721       -5.5619877995        0.0505129952
 H          5.5853252001       -5.1143314198        0.1540814728
 H          6.4338940001       -2.8143162312       -0.0849039468
 H          4.8679371364       -0.9424827908       -0.4234565190
 H          2.5818447364       -0.1257479969       -0.6893902448
 H          0.6904904193       -0.1136097994        1.6108835192
 H          2.5511090343        2.5747047038        2.5585073904
 H          3.4126288946        4.8935825768        2.6465946176
 H          2.9080868843        6.4653600742        0.8081073309
 H          1.5232328172        5.7211742357       -1.1126242295
