116
 energy: -170.073041092023 gnorm: 0.000048915170 xtb: 6.7.1 (edcfbbe)
C          -11.28484988986773       -5.11057907435136       -1.14038505882410
C          -11.54884885471031       -4.10225613107266       -0.01169670194330
C          -12.90759265449483       -3.44377222296383       -0.27045831066473
C          -11.62531299625975       -4.83701295435738        1.33510419966783
C          -10.40869605715847       -3.09480777662138        0.03015074339561
C           -9.10681232561864       -3.55350677037048        0.27275735638514
C           -8.01200165646219       -2.71411025403939        0.32539663577436
C           -8.22273321415033       -1.35597065017454        0.13835019936593
C           -9.51987648748662       -0.87073374564843       -0.13256909119933
C          -10.60238775816847       -1.73728957465671       -0.18116119587022
C           -9.39076203551534        0.54912314376282       -0.33106730029576
C          -10.31046069020244        1.55485581984743       -0.59178615614417
C           -9.88141806791673        2.86982352579393       -0.70144846733917
C          -10.83425717171464        4.02283180426122       -0.98402508858628
C          -10.41060595388378        4.72189199549025       -2.28468878064621
C          -10.77806527508909        5.01973010834394        0.18359974189302
C          -12.28619273670328        3.56169387255066       -1.14496019492558
C           -8.51768149681634        3.14352819542663       -0.52955530636650
C           -7.58171531884526        2.16295167234696       -0.26842914032649
C           -8.01970639105427        0.84951922327321       -0.18551364478473
N           -7.32081894552967       -0.30866344338923        0.10172524132246
C           -5.94701043640497       -0.39943804877419        0.32222266982406
C           -5.44692230013122       -1.10564836806994        1.41946251104505
C           -4.09188199616799       -1.18475812206714        1.63765976522744
C           -3.17368587713212       -0.54962840721539        0.78371854430996
C           -1.75054685900784       -0.65320935011566        1.01547026943216
C           -1.21311786610640       -1.88383715305003        1.42914432215368
C            0.13317405848634       -2.09209520364045        1.51610559493906
C            1.05634215506885       -1.05148230129216        1.20137906537417
C            2.43563753997647       -1.23802466865631        1.28381581457395
C            3.31696094649046       -0.21607434417510        0.97143512487127
C            2.85676110386625        1.04049217164182        0.56239343383152
C            3.75204628701825        2.11647520714837        0.22239096270108
C            5.17062265741112        1.90553524049452        0.02876634633388
C            6.10948394171173        2.84704579200332        0.48479587180303
C            7.45835927832832        2.64588656949886        0.31771337003729
C            7.93559660496522        1.49547585253241       -0.32004029011609
C            9.36315232757232        1.30628891689687       -0.44856238584912
N           10.23351816275356        2.27187658991153       -0.62009015454261
N           11.45083095526329        1.73011629030010       -0.72735764541065
C           11.33953004300055        0.43073822710913       -0.61606285555957
C           12.46089582719797       -0.49325372718920       -0.64210265040427
C           12.51052808236057       -1.61701561914133        0.18059119181030
C           13.60573502430417       -2.46022280998009        0.13601552888609
C           14.66082276807728       -2.19183791423651       -0.72057930642225
C           14.62538115055718       -1.06489592357495       -1.52711187159162
C           13.53481275774493       -0.21738904886531       -1.48798515597293
N           10.01792346816688        0.09388383884918       -0.43548081673591
C            9.46143100814378       -1.18657246471655       -0.26044329224656
C            8.66789831270997       -1.44797315211463        0.85200066551941
C            8.11322276109749       -2.70416370872565        1.01510919230407
C            8.35294449301070       -3.69959666062032        0.08142870099556
C            9.14963552132841       -3.43807180324335       -1.02149751873764
C            9.70381932030587       -2.18329638972878       -1.19958866937941
C            7.00870530956206        0.58510468292929       -0.83836954649011
C            5.65979588882691        0.78538573191202       -0.66364919412674
C            3.21985989832793        3.40292725594803        0.03803826203412
C            1.87574492982457        3.64138785667269        0.07526394538765
C            0.95160048262788        2.58303281327401        0.31773168482881
C           -0.42456899444532        2.80120520523975        0.36684608073197
C           -1.30773281178480        1.75939204079317        0.59892158893472
C           -0.85217492094658        0.45043635715557        0.78883643087703
C            0.55048699409944        0.22436478198813        0.84042369744382
C            1.45525777126727        1.27936731597947        0.56369173433959
C           -3.69280965760033        0.13953838393601       -0.32620815703878
C           -5.04636112117336        0.21274836822091       -0.55405453266670
H          -10.36562211852175       -5.66485973365234       -0.97168055275888
H          -11.20037821860236       -4.59332501013567       -2.09436692731493
H          -12.10474173214722       -5.82302647307502       -1.20500244179637
H          -13.68356678880487       -4.20681430127656       -0.27907510329648
H          -13.15066054921440       -2.72724096420538        0.51104564729289
H          -12.92230973996364       -2.94106701016145       -1.23493154946919
H          -11.78949055201152       -4.12624483352358        2.14288045966941
H          -12.45004651944501       -5.54677208824452        1.32720942900289
H          -10.70979381602212       -5.38376220696204        1.54329236539246
H           -8.93714707181843       -4.60912959721260        0.41993605015090
H           -7.02295982574551       -3.11324056071726        0.49219036758655
H          -11.57832893003033       -1.33327163057195       -0.39146526894205
H          -11.34938171290293        1.29057423713167       -0.69567197962445
H          -11.08980416038634        5.54262513539543       -2.50611885713107
H           -9.40424327603220        5.12468414599461       -2.21067505778515
H          -10.43681539279888        4.01904853736938       -3.11530474007221
H          -11.47581571955665        5.83670893063879        0.01122949650593
H          -11.04885894973422        4.52500479580014        1.11452660060589
H           -9.78355870698370        5.44165821748118        0.29941955645974
H          -12.38629255515090        2.86393085232803       -1.97334987796064
H          -12.65147902643302        3.09197609021269       -0.23439772399975
H          -12.91770710062390        4.42302772025547       -1.35398933380621
H           -8.17079747877825        4.16342794867005       -0.59500109752880
H           -6.54424089871369        2.42152240856710       -0.12010340124334
H           -6.13620663486479       -1.56053547645961        2.11528056813891
H           -3.72766278260211       -1.70065616374270        2.51345167166465
H           -1.88968240434335       -2.70450241405134        1.62094854184886
H            0.52408505402778       -3.05754301911066        1.80226450468034
H            2.81944695352062       -2.19706286135864        1.60201729675068
H            4.37759207610662       -0.38796442833254        1.07395947139465
H            5.76561744784101        3.72200025498081        1.01619618148691
H            8.17525724593925        3.36203060430034        0.69040327566072
H           11.70289848521317       -1.82386856583605        0.86776974847037
H           13.63555070247823       -3.32860020643127        0.77770080670814
H           15.51253313030355       -2.85488097369046       -0.75355585211750
H           15.45022636963604       -0.84626627564777       -2.18910489484580
H           13.49379608969255        0.66679661398274       -2.10584990872035
H            8.48999544270374       -0.66605959853766        1.57624420733281
H            7.49528597257680       -2.90441003991332        1.87736737304368
H            7.91944898260705       -4.67909620001689        0.21374150219706
H            9.33869550173908       -4.21089050014159       -1.75109742183319
H           10.32216011238078       -1.96846414565406       -2.05913310041608
H            7.34867903440316       -0.27086301324265       -1.40363463307937
H            4.95946035634586        0.09270997940813       -1.10708056498420
H            3.89688146068184        4.21168633840804       -0.19789471564461
H            1.48813543104269        4.63410765062115       -0.10097932618947
H           -0.80400057444989        3.80331120477023        0.22520645524617
H           -2.36373333992008        1.97188863710889        0.66372336945818
H           -3.01083073408570        0.57205938977616       -1.04297601626423
H           -5.42243590140139        0.71555855374330       -1.43278110400418
