116
 energy: -170.073008213957 gnorm: 0.000073836664 xtb: 6.7.1 (edcfbbe)
C          -11.32866981973918       -5.03403861220839       -1.56475919234963
C          -11.58813879399859       -4.07141605270441       -0.39598643326158
C          -12.93417801454211       -3.38163007887046       -0.63887484733396
C          -11.68817118869695       -4.86256986532551        0.91707884976312
C          -10.43450727236266       -3.08389010390518       -0.29384479496036
C           -9.13924501360669       -3.57413244114996       -0.07986077957176
C           -8.03463910062769       -2.75395707119801        0.03471781242509
C           -8.22805258331985       -1.38310052148889       -0.05320760645978
C           -9.51761049199248       -0.86527038031109       -0.29864727843251
C          -10.61026412322475       -1.71281851023561       -0.41280168594114
C           -9.37173883579774        0.56336695619819       -0.39585460181686
C          -10.27879391028837        1.59367009737508       -0.59820887592757
C           -9.83600959388876        2.90842108262214       -0.61483826879710
C          -10.77264136793063        4.08728119365859       -0.83744803175496
C          -10.32047131711285        4.86075425552143       -2.08531897760137
C          -10.72468499979642        5.00822949319102        0.39129029393904
C          -12.22635693171579        3.65308728334976       -1.04911047871232
C           -8.47285952346107        3.15585757928161       -0.40403314988895
C           -7.54973014918145        2.15027573656432       -0.19775285421595
C           -7.99972374669525        0.83824914600770       -0.21422553378015
N           -7.31479866567760       -0.34542177627733       -0.00548957374773
C           -5.94489382606618       -0.46530284662956        0.22271486058801
C           -5.46262598765309       -1.27538556511652        1.25433207084791
C           -4.11113572987023       -1.38236025559619        1.48235192949276
C           -3.17950333819257       -0.66821679809004        0.71013605507900
C           -1.76022968426897       -0.79404977887593        0.95593106822610
C           -1.22497102150192       -2.06046739464141        1.24395270837896
C            0.12087265967085       -2.27306070186382        1.33117511484069
C            1.04398242613921       -1.20127518248079        1.14962828063771
C            2.42289241678805       -1.39170379861489        1.23210567821716
C            3.30373165456602       -0.33783648153874        1.05296752038065
C            2.84344338477943        0.95635835100649        0.78657170072866
C            3.73869428548866        2.06801026933093        0.59289303527050
C            5.15942975348949        1.88465374326954        0.39083270499170
C            6.09234961964038        2.76312332412367        0.96911760130059
C            7.44247271088278        2.58550072240557        0.78988996677728
C            7.92901522856179        1.52719608889640        0.01306772545623
C            9.35832297319378        1.37091145027146       -0.12844567558692
N           10.21809747873529        2.36217699092952       -0.11242769845094
N           11.44299201666125        1.86341502023468       -0.29641411318432
C           11.35002631516516        0.56290130971612       -0.41963090060580
C           12.48955959912869       -0.32084683995823       -0.59353229902476
C           12.53383104371761       -1.59802827631101       -0.03727754715222
C           13.65002082010257       -2.39434162444955       -0.21815372950819
C           14.73362747522603       -1.92724732990322       -0.94359216721717
C           14.70460875468330       -0.64915822696447       -1.48012345610460
C           13.59240732338545        0.15141473344412       -1.30591917012337
N           10.03081072981405        0.18365591454469       -0.32194307845816
C            9.49234398773018       -1.11513330905479       -0.38572600796634
C            8.72682406662265       -1.59772726780130        0.67097298400732
C            8.19453405113556       -2.87222771432149        0.60166448114267
C            8.42758417952431       -3.66638018710259       -0.50976301002905
C            9.19490789270603       -3.18456312696178       -1.55798662641455
C            9.72762843610457       -1.90925040221358       -1.50304082406929
C            7.00783504438771        0.68800037622257       -0.62300271597911
C            5.65742447035475        0.86052994874231       -0.43185825581454
C            3.20348071408060        3.36606193556275        0.56040039250912
C            1.85762991064699        3.59387903359467        0.59995987757323
C            0.93466308709199        2.51080772647457        0.69204847546557
C           -0.44373719431235        2.71637349019474        0.73412015504988
C           -1.32502897501714        1.65107089110663        0.82154413888657
C           -0.86456048652659        0.33098189770662        0.87152302488499
C            0.53783030535953        0.10556821839860        0.92624016920657
C            1.44116535462042        1.18893016321987        0.79137226927342
C           -3.67946936523049        0.12724963073204       -0.33523016809193
C           -5.02901688704568        0.22312384664180       -0.57836356640082
H          -10.42145004528998       -5.61190408303340       -1.41144083358877
H          -11.22540261072131       -4.47778996757945       -2.49456924504877
H          -12.15990084965672       -5.72852879841095       -1.66833995133628
H          -13.71980982447957       -4.13240032806071       -0.69858254106807
H          -13.17988491202533       -2.70396901313878        0.17572996541567
H          -12.92747202737585       -2.82868893383598       -1.57557609174558
H          -11.85631920999154       -4.18526049709639        1.75230340832877
H          -12.51873643303221       -5.56386905163760        0.86882283525520
H          -10.77940056703169       -5.42519578512345        1.11251965272623
H           -8.98273508046123       -4.63932536238691       -0.00493242671268
H           -7.05164829716956       -3.17713268376723        0.17541538883514
H          -11.58000712809383       -1.28316129734177       -0.59959404067962
H          -11.31864800429838        1.34752312380647       -0.73260421132420
H          -10.98821343279357        5.70042921010095       -2.26710971424414
H           -9.31176972198331        5.24765886087572       -1.96988323703593
H          -10.33858005904611        4.21065355508908       -2.95815765701988
H          -11.41219467864826        5.84143115623521        0.26086493638443
H          -11.01407350448141        4.45840129656040        1.28497829285446
H           -9.72819273832599        5.41181643328632        0.54810424919858
H          -12.32057559114887        3.01211572488543       -1.92290495072431
H          -12.60962008943108        3.12860181493728       -0.17663623327701
H          -12.84654148597353        4.53276114456804       -1.21027128677851
H           -8.11565115802922        4.17423799666728       -0.39400281073668
H           -6.51293478314669        2.38902432919577       -0.01572497108254
H           -6.16238677593584       -1.79021150982001        1.89540608091722
H           -3.76094142717311       -1.98414525590324        2.30760426543490
H           -1.90132752232534       -2.89866121535250        1.33387558162291
H            0.51154924785856       -3.26277127685374        1.51710445334213
H            2.80640681579228       -2.37958540597623        1.44495890805723
H            4.36373791414995       -0.51643385560521        1.15088447895205
H            5.74223245040712        3.56391410467253        1.60344977633723
H            8.15535496823751        3.24896184076387        1.25586732002714
H           11.70630263411060       -1.96499355447173        0.55196602278134
H           13.67383726025921       -3.38307627509821        0.21616164157372
H           15.60174179673798       -2.55411761060145       -1.08341825573015
H           15.55181650036617       -0.27580741222757       -2.03627007497092
H           13.55521586145128        1.15035156367417       -1.71309944519337
H            8.55371082690450       -0.97091828836759        1.53395590278619
H            7.59892447493734       -3.24497860350094        1.42122238448089
H            8.01139414440593       -4.66098627002505       -0.55884586781026
H            9.37819573446516       -3.80011048651048       -2.42558877033671
H           10.32458869313687       -1.52234348619674       -2.31629063455342
H            7.35196947415412       -0.08722413198968       -1.29218372555097
H            4.96210502670293        0.22665529976690       -0.96269617900365
H            3.88074638129671        4.19949454872673        0.43899509829301
H            1.46798243425260        4.59954701226806        0.53970876206847
H           -0.82623993431523        3.72679076327233        0.70198741617361
H           -2.38398760533724        1.84943475940832        0.88337729744010
H           -2.98507638206584        0.62857412646001       -0.99301399978762
H           -5.38946019394555        0.80658379363126       -1.41251683095463
