116
 energy: -170.141596717629 gnorm: 0.000062770654 xtb: 6.7.1 (edcfbbe)
C          -11.29950220737047       -5.12226377394364       -1.14689852771067
C          -11.51630057361938       -4.15130345507423        0.02367300910040
C          -12.89510050929522       -3.50544469326908       -0.14542049168176
C          -11.51429145435951       -4.92680415280279        1.34964896490757
C          -10.38827064178218       -3.12819260542937        0.03834698553239
C           -9.06904733603632       -3.57805224314788        0.18950134964843
C           -7.98322581273593       -2.72671090230091        0.21258628952014
C           -8.21945045727069       -1.36606281543775        0.08829766216156
C           -9.53502520286965       -0.88728489004115       -0.08686534151169
C          -10.60925008382160       -1.76825156303781       -0.10620575774533
C           -9.43257458891095        0.53896864340331       -0.23353563240575
C          -10.37489427206508        1.54413098559628       -0.41217397428620
C           -9.96558770638042        2.86455700742683       -0.50249302834826
C          -10.94153293146910        4.01590340702498       -0.70542489990888
C          -10.58991906586152        4.75006990909946       -2.00819099688998
C          -10.83596476637775        4.98429485051717        0.48224921209160
C          -12.39586772200711        3.54481041051895       -0.80449519608529
C           -8.59676267013803        3.14846360946999       -0.39595732274957
C           -7.63880224267617        2.17101730531542       -0.21819264366099
C           -8.05898841735634        0.85132665552320       -0.15198846213934
N           -7.33330521637646       -0.30708895178359        0.04633296671786
C           -5.94084193449350       -0.39836674988142        0.17098385409097
C           -5.37528163652660       -1.09674893710065        1.23472572941457
C           -4.00305892728907       -1.20133510845798        1.34401119607911
C           -3.16274393085276       -0.59773937802650        0.41071565790872
C           -1.70278092273743       -0.75269670022329        0.51778347293827
C           -1.18207928686948       -2.04082382757983        0.61528198983432
C            0.17703853322566       -2.26526939805580        0.66084143791637
C            1.07588444347764       -1.19859040446279        0.60198867499797
C            2.48528325628126       -1.39600454300671        0.63845830175814
C            3.34556712550348       -0.35389441206422        0.56720849802107
C            2.87676807978522        0.98886386005474        0.45112280654276
C            3.75058030300248        2.08860443447490        0.36371243839847
C            5.21032799673442        1.91167007205326        0.28976678709569
C            6.04497498847748        2.56641705907391        1.19401902791686
C            7.41299205285866        2.39356609898208        1.14321881063322
C            7.98224314739231        1.55897385568398        0.18249130163138
C            9.42296512095784        1.37007116788301        0.17566428917017
N           10.30614673451133        2.30402506325426        0.41632960321482
N           11.52752518206495        1.76885628591675        0.30298895347925
C           11.39915433870662        0.50302082647245       -0.00282132416990
C           12.51020838007128       -0.41875605525509       -0.17263322826008
C           12.43706275657833       -1.74716970225738        0.24150441521623
C           13.52227589218383       -2.58687008398169        0.06814752390738
C           14.68809209105764       -2.11284287200115       -0.51059249803866
C           14.77389553454316       -0.78622594309716       -0.90360646067323
C           13.69374158804308        0.05876337165287       -0.73446196379876
N           10.06486568032093        0.18512361944737       -0.10032902239141
C            9.47722723071930       -1.05588102767730       -0.41203001634497
C            8.53615039894390       -1.60838486206981        0.45014143403125
C            7.94802416647646       -2.81922531778463        0.13254648502627
C            8.29863795063293       -3.48063222826793       -1.03336064849811
C            9.24134085122229       -2.93005881163718       -1.88658495391306
C            9.83163815190790       -1.71640989645258       -1.58320761991434
C            7.15636200596535        0.94328493226928       -0.75642777817610
C            5.78835965542276        1.11807753553655       -0.69966111868561
C            3.23196732497157        3.38039867183513        0.34215425892738
C            1.87249583302028        3.60788168846260        0.37330944635602
C            0.97345005316709        2.54089939838152        0.42694408407580
C           -0.43573846236680        2.74149175119374        0.46658508769207
C           -1.29598592845921        1.69741477727377        0.50321081582488
C           -0.82827945938100        0.34955228130728        0.50144375130725
C            0.57298148709818        0.12353718182699        0.52414810516002
C            1.47579175666985        1.21674156166633        0.46726946572153
C           -3.73701929922706        0.10190662031006       -0.64948966279570
C           -5.10871755718873        0.19833956209430       -0.77295682930110
H          -10.36463312053412       -5.66641144813453       -1.04385730678893
H          -11.27312265093540       -4.57580102746760       -2.08793538472458
H          -12.11144044548403       -5.84559657625460       -1.18961563803683
H          -13.66041095650525       -4.27938443154545       -0.14287409866427
H          -13.10873867214914       -2.81934779636576        0.67122013010338
H          -12.96317549675199       -2.96970548033696       -1.08964390114096
H          -11.64844012726975       -4.24250948750024        2.18540563659060
H          -12.32708751821932       -5.65034343174553        1.36186749428565
H          -10.58035954205746       -5.46276287862015        1.49521729235381
H           -8.87936853532645       -4.63625636221490        0.28845555795190
H           -6.98106172394904       -3.11647536481760        0.31326823046434
H          -11.60055736162998       -1.36868332300887       -0.24147474489886
H          -11.41515951676372        1.27033865951468       -0.47165829670032
H          -11.29047054023175        5.56482036328517       -2.18046053483049
H           -9.58697973993785        5.16649016111616       -1.97121142217542
H          -10.64303355164130        4.06426009838396       -2.85182974920567
H          -11.54435523356930        5.80182216624152        0.36329857680966
H          -11.06091758238041        4.46451162531846        1.41179509109172
H           -9.83859470900184        5.40786278580226        0.56262978624132
H          -12.53220297433828        2.86976380756646       -1.64651741380328
H          -12.70816011536140        3.04417364418423        0.10935190833675
H          -13.04570383980927        4.40492336667894       -0.95478830955710
H           -8.26377414222928        4.17404480987278       -0.44937449596549
H           -6.59547043181973        2.43419179395203       -0.12509386417666
H           -6.01778224173129       -1.54628356837737        1.97736063607712
H           -3.57227736181660       -1.73853288466282        2.17659464654061
H           -1.86535211524479       -2.87821458167884        0.63262382645786
H            0.55795620234515       -3.27425432951393        0.73040135768366
H            2.85446899160984       -2.40788251116210        0.73060832539443
H            4.41065630581915       -0.52531112945157        0.61334482470691
H            5.61077489133902        3.19687593564261        1.95620671186456
H            8.06041270620658        2.89105291222615        1.84936117214681
H           11.54055439304361       -2.12202841772607        0.71358344312188
H           13.45632062360948       -3.61558941777345        0.39064270275091
H           15.53094584300235       -2.77389803669625       -0.64734390485807
H           15.68520227425905       -0.40955194840048       -1.34405223889837
H           13.74500215159144        1.09525669725293       -1.03128658087321
H            8.27301470471030       -1.08649339355994        1.35891386714940
H            7.21636282482516       -3.24639013658411        0.80145983983024
H            7.83793507614826       -4.42579658984779       -1.27652688706911
H            9.51733936286525       -3.44269506561320       -2.79550043286869
H           10.56457148486091       -1.27626550875619       -2.24380656739164
H            7.58286206564010        0.33649136810998       -1.54205421728814
H            5.15786855159104        0.64649114405356       -1.43945192266468
H            3.91591311969700        4.21502588398152        0.27890815757843
H            1.49188359515678        4.61903365792408        0.34955169211196
H           -0.80433469063213        3.75774755230011        0.47326826163923
H           -2.36028295690027        1.87214390713425        0.55307008303978
H           -3.09991523900346        0.54746699105301       -1.39981253134936
H           -5.54456037610731        0.72077009322663       -1.61174205403911
