  94
       -127.86831167
 C         -3.3960547784       -5.8308011037       -1.7911435037
 C         -3.6721960384       -4.4063234803       -1.4151655062
 C         -4.8313047555       -3.7617876061       -1.8263731151
 C         -5.0866486109       -2.4520196062       -1.4700443184
 C         -4.1844708929       -1.7485570582       -0.6740010324
 N         -4.4416517120       -0.4250605514       -0.3019529768
 C         -5.7485412365       -0.0131229110       -0.0196738762
 C         -6.6437698418       -0.8669030322        0.6248350348
 C         -7.9304858696       -0.4508692366        0.8969910046
 C         -8.3655209372        0.8235597997        0.5484683080
 C         -9.7645159257        1.2595922763        0.8635852152
 C         -7.4687537496        1.6706511009       -0.0885418822
 C         -6.1805371364        1.2631565247       -0.3753973092
 C         -3.3854347659        0.4844960056       -0.1853873438
 C         -3.3688473452        1.4336119721        0.8325733800
 C         -2.3139878833        2.3183756252        0.9567077051
 C         -1.2388533382        2.2863526797        0.0786937176
 C         -0.0278333638        3.2088388727        0.1781090138
 C          1.1747745023        2.2757244779        0.1674466293
 C          1.3441439069        1.4020874788        1.2403473006
 C          2.3699065261        0.4824769676        1.2738299506
 C          3.2676948150        0.3884176508        0.2116940533
 N          4.3002443288       -0.5562348087        0.2297831006
 C          5.5602839874       -0.2231985520       -0.2749926000
 C          6.3343446030       -1.1674604338       -0.9472082368
 C          7.5837292347       -0.8313002426       -1.4307717856
 C          8.0956700760        0.4496808042       -1.2732542024
 C          9.4535260979        0.8183383232       -1.7900085167
 C          7.3145241714        1.3912720053       -0.6115703519
 C          6.0696484674        1.0658390677       -0.1145374382
 C          4.0549194805       -1.8354017074        0.7402537431
 C          2.8192294623       -2.4511494459        0.5443341780
 C          2.5776756374       -3.7101182213        1.0562270179
 C          3.5534718885       -4.3979742553        1.7670010121
 C          3.2958522930       -5.7766839368        2.2955786249
 C          4.7843015654       -3.7808048050        1.9560877684
 C          5.0356821037       -2.5180871199        1.4585383905
 C          3.0952015787        1.2399084101       -0.8751560872
 C          2.0633975621        2.1593844977       -0.8948680130
 C         -0.0857563662        4.1931970853       -1.0075080402
 C          1.0173165090        5.2514726768       -0.9814852196
 C          1.0243226619        6.0119272641        0.3387280868
 C          1.1416381971        5.0246542324        1.4931628533
 C         -0.0366140660        4.0569182438        1.4620228092
 C         -1.2681869081        1.3384380094       -0.9427064212
 C         -2.3174620946        0.4563537608       -1.0817501952
 C         -3.0194594119       -2.3921002689       -0.2554290102
 C         -2.7716088037       -3.6970435992       -0.6278179522
 H         -4.0926510191       -6.1741177479       -2.5519351347
 H         -2.3811747843       -5.9383335456       -2.1704906173
 H         -3.4952204580       -6.4773321527       -0.9186605588
 H         -5.5445314487       -4.2888049544       -2.4443162710
 H         -5.9887807126       -1.9641879476       -1.8092674594
 H         -6.3204343660       -1.8566923149        0.9124233808
 H         -8.6108271026       -1.1245433298        1.3985792248
 H        -10.4867514438        0.5665993767        0.4338156293
 H         -9.9597835921        2.2540213215        0.4701981259
 H         -9.9226737040        1.2768830742        1.9418220117
 H         -7.7835803163        2.6644165941       -0.3742982463
 H         -5.4989716995        1.9327694443       -0.8794514992
 H         -4.1865810933        1.4702039558        1.5377515146
 H         -2.3431678769        3.0264280087        1.7693340847
 H          0.6494040126        1.4267138089        2.0664666288
 H          2.4775575684       -0.1788692028        2.1211571320
 H          5.9492086832       -2.1666161772       -1.0895010300
 H          8.1675480941       -1.5796228156       -1.9480439835
 H          9.3908285222        1.6857576603       -2.4457747219
 H          9.8955964182       -0.0058925690       -2.3441603292
 H         10.1168287779        1.0745139854       -0.9638008165
 H          7.6944959277        2.3939605821       -0.4749756181
 H          5.4824113705        1.8076637905        0.4069182529
 H          2.0500243260       -1.9355134781       -0.0120414756
 H          1.6133255212       -4.1703056220        0.8935541370
 H          3.6135196633       -6.5233950642        1.5663697846
 H          2.2362469583       -5.9258623915        2.4900640854
 H          3.8513025065       -5.9490934511        3.2148848593
 H          5.5566382966       -4.2934514481        2.5119026476
 H          5.9943469145       -2.0495677895        1.6268582535
 H          3.7683223778        1.1680193378       -1.7174266856
 H          1.9529919261        2.7681859392       -1.7777897377
 H         -1.0549570556        4.6983273786       -0.9606266326
 H         -0.0579711318        3.6481297066       -1.9523007537
 H          0.8633129158        5.9446801209       -1.8123595795
 H          1.9940490866        4.7852429473       -1.1133062500
 H          1.8568596617        6.7184120146        0.3560996521
 H          0.0981490495        6.5828364548        0.4427316380
 H          1.1500312199        5.5598577753        2.4454534153
 H          2.0779521392        4.4681308014        1.4104882960
 H         -0.9569767112        4.6441153320        1.4928908465
 H         -0.0120267611        3.4187218515        2.3452819498
 H         -0.4465981095        1.2836639370       -1.6418080680
 H         -2.3152892712       -0.2673386800       -1.8837664745
 H         -2.3120718173       -1.8614484737        0.3651049743
 H         -1.8641595770       -4.1799033994       -0.2936842196
