  34
  -62.1939203523000        1.00000000000000      !
 Br         5.0917905349        1.0466957990       -0.0060979230
 C          3.9370352299       -0.4665771241        0.0017096752
 C          4.4730188032       -1.7447174992        0.0159731329
 C          3.5735744910       -2.8023107643        0.0218375911
 C          2.2154830654       -2.5420313773        0.0140057806
 C          1.7933570390       -1.2108130351        0.0022181568
 C          0.3957455790       -0.8547339015       -0.0025946961
 N         -0.6194096673       -1.6918184514       -0.0026350979
 C         -1.7308589860       -0.9151591739       -0.0040289990
 C         -3.1000295799       -1.3093759583       -0.0049414815
 C         -3.5246145301       -2.6428017025       -0.0102018640
 C         -4.8739301270       -2.9078354587       -0.0100361904
 C         -5.7612119632       -1.8268418368       -0.0034588148
 N         -5.3851207405       -0.5725349820        0.0005141406
 C         -4.0807911603       -0.2880297486       -0.0008505045
 C         -3.6964291722        1.1120123211        0.0023290874
 N         -4.6679651499        2.0246853733        0.0085313015
 C         -4.3524836622        3.2955279852        0.0118822377
 C         -3.0374729880        3.7709058206        0.0079876353
 C         -2.0133784793        2.8534541825        0.0011663764
 C         -2.3263146767        1.4873775920       -0.0011533507
 C         -1.3716125758        0.4392064554       -0.0042767536
 N         -0.0116413811        0.4499377746       -0.0043797650
 N          2.6566725832       -0.1913752294       -0.0038942711
 H          5.5397376426       -1.8990072588        0.0218320064
 H          3.9385535365       -3.8183580548        0.0324306384
 H          1.4751839696       -3.3239799454        0.0169224770
 H         -2.7817021966       -3.4260478327       -0.0144772465
 H         -5.2464857990       -3.9206092148       -0.0148776308
 H         -6.8311698063       -1.9916939877       -0.0026580502
 H         -5.1872025416        3.9843333397        0.0178923836
 H         -2.8380308702        4.8312199172        0.0107481998
 H         -0.9804327654        3.1735560715       -0.0015764415
 H          0.6185022068        1.2354545664       -0.0045837034
