60
 energy: -90.374379343939 gnorm: 0.000067866300 xtb: 6.7.1 (edcfbbe)
C           -0.08875137739820       -2.35432665801512        1.89327110577006
C           -0.56120925195664       -1.31390363214818        0.92471099375384
C           -1.91604807239075       -1.09157056549223        0.80566788012463
C           -2.44199812547610       -0.06939056649884        0.00977932262695
N           -3.82858568713782        0.09863685292342       -0.02962507904070
C           -4.52149296963997        1.24096810112311        0.31120327800800
C           -4.03895620268184        2.44510751985901        0.80789734034501
C           -4.96020871392846        3.43241826305534        1.10677250064565
C           -6.32615120814961        3.22641412335889        0.93025121672402
C           -6.81487353325329        2.01306312299360        0.47150428265189
C           -5.91057086588997        1.00937461379806        0.16529045080669
C           -6.04990705383937       -0.35513461593365       -0.27972606043911
C           -7.13667414398537       -1.14937986536433       -0.60649734043962
C           -6.90377829990539       -2.45302683715756       -1.01666463913604
C           -5.60948399175452       -2.95742457588736       -1.11482058481299
C           -4.50852444620421       -2.18135207635829       -0.79962006346073
C           -4.73832166707492       -0.88097667562444       -0.36825938589656
C           -1.57306132161013        0.75284960170883       -0.73200102104510
C           -2.07596269350853        1.78826459799314       -1.69254635969222
C           -0.21922312051432        0.52282128480553       -0.61513993797071
C            0.33091576504761       -0.49555782769503        0.18481367810882
C            1.76865635045007       -0.64650240479354        0.21246314769684
C            2.59439111106202        0.50036677765642        0.24275367205965
C            3.95741248052043        0.40736869642980        0.27592854987894
C            4.60234810547349       -0.85102773065522        0.21308682282471
C            6.03060061738013       -1.02492757287187        0.23672784608136
O            6.54067567898641       -2.13806228198545        0.56352394480561
C            6.91294665989362        0.10629011402950       -0.08593223230219
C            8.15761865831645        0.19964711130074        0.54774182025459
C            9.02514925291453        1.22725812986920        0.24076801387120
C            8.68140293796775        2.17042569384147       -0.71690927004342
C            7.46664530436125        2.06362765749067       -1.37891218788030
C            6.58918131932404        1.04213018705012       -1.07394242556476
C            3.77614962835663       -2.00333455268516        0.21820133747826
C            2.41465014121447       -1.90206196149334        0.20339996382675
H           -0.79371314657585       -2.44769177891105        2.71721209497209
H           -0.02043012912585       -3.32860305654981        1.40802903461804
H            0.89072530175431       -2.10289206614714        2.29200153895798
H           -2.60433284565823       -1.68883737647705        1.38721475683629
H           -2.98377620053919        2.59763804042324        0.97046137736945
H           -4.61362805177197        4.37988430422647        1.49124168636734
H           -7.01519900238850        4.02212168221937        1.17080857342527
H           -7.87604577580139        1.84980733554095        0.36277471053156
H           -8.14132932770987       -0.75996278142895       -0.54629488264020
H           -7.73842787928000       -3.08879650250974       -1.27146117291956
H           -5.46174098172211       -3.97402824745143       -1.44697105672758
H           -3.50609275618352       -2.57018654642026       -0.89023314858554
H           -1.47674273048454        1.76837432208252       -2.60069126448219
H           -1.99055541886653        2.78668228683044       -1.26467709348969
H           -3.11655019177985        1.61925257595040       -1.95732134106949
H            0.45544174081212        1.11830010728794       -1.21213771971957
H            2.13237589959969        1.47503684112105        0.31176913199063
H            4.55058349891693        1.30365853405413        0.38046819192847
H            8.41667013434994       -0.54390601943012        1.28816867507070
H            9.97611672092633        1.29338882976052        0.75014892324198
H            9.36142055728675        2.97448476730163       -0.95658919876233
H            7.20604419357263        2.77784194108380       -2.14717742450448
H            5.66521113125015        0.94300918070231       -1.62458422090778
H            4.26480108920501       -2.96703375309806        0.18942423968433
H            1.82469068707109       -2.80131262749699        0.11907697450678
