60
 energy: -90.463864083798 gnorm: 0.000049345977 xtb: 6.7.1 (edcfbbe)
C            0.00573585353899       -2.03928012125789       -2.23023621123085
C           -0.50801692662777       -1.05030126829448       -1.22679523657022
C           -1.87674993102707       -0.93690780309284       -1.02799961000483
C           -2.40988411953996       -0.05882083590272       -0.09539767278161
N           -3.81135882311803        0.01302679903436        0.05480468612975
C           -4.61825175028176       -1.00190451607724        0.51738421876774
C           -4.26794761447973       -2.27287519248086        0.95096546464080
C           -5.28094396982723       -3.10514191394587        1.38646190245608
C           -6.61074237278956       -2.68609673561646        1.39909965060477
C           -6.96274904806600       -1.41831763664391        0.97958196807979
C           -5.96321327354960       -0.56235367787252        0.53361504369210
C           -5.95436934270150        0.78522848244697        0.03646538200283
C           -6.94498662707498        1.73024168524815       -0.20000049468420
C           -6.58106136763370        2.95449317726081       -0.72524351506592
C           -5.25062047638729        3.23994878650162       -1.02867121890985
C           -4.24669145081170        2.31811317199647       -0.80286595116999
C           -4.60398025655827        1.09491818997267       -0.25241487826614
C           -1.56890493744459        0.72174827740200        0.70239920154730
C           -2.11836575724312        1.62666866952281        1.76211323650014
C           -0.20359763231448        0.61021930172425        0.49488994408461
C            0.33964761458004       -0.24531348271979       -0.45996576270952
C            1.80659733845867       -0.27830345766354       -0.61003904395041
C            2.61453713345855       -0.52886956537291        0.49814713573304
C            3.99026778204158       -0.53684078113101        0.38422048739772
C            4.59281072645031       -0.29174777061809       -0.84988509500643
C            6.06217851605682       -0.32714224172744       -1.02401396639233
O            6.57194024300462       -0.70157010205026       -2.07094915561590
C            6.89315320590107        0.11209047934699        0.12340050294095
C            8.13625371279889       -0.48654533590085        0.32351925256442
C            8.94445592900285       -0.08509088090057        1.37015310615831
C            8.52964215725679        0.93438358492209        2.21308516894807
C            7.30651407267421        1.55256895015195        2.00473224339491
C            6.48643875012651        1.14343977237014        0.96896343796943
C            3.78546770047166       -0.05441462472257       -1.96259789508253
C            2.41143530545400       -0.03710102143238       -1.84249247948412
H           -0.62199430760937       -2.92826780567562       -2.23538768420109
H           -0.02124444247911       -1.61104891502743       -3.23250772930064
H            1.02973585060073       -2.33092917730977       -2.01154288529636
H           -2.55265389614640       -1.54601829763577       -1.61176446723678
H           -3.23761965041730       -2.59686574191145        0.94762617239874
H           -5.03875355906071       -4.10211857716318        1.72568392365195
H           -7.37451401284345       -3.36666846598789        1.74661104548293
H           -7.99340275459470       -1.09565582862535        0.99663501255699
H           -7.97879834625154        1.50693694130795        0.01909148242648
H           -7.33714722171195        3.70263316011989       -0.91470982179888
H           -5.00143058039666        4.20152460216753       -1.45414491374197
H           -3.21990172132499        2.53544544957677       -1.05822673390148
H           -2.51503864153347        2.54236451310964        1.32366385458049
H           -1.34093748800580        1.89639900653466        2.47239478841689
H           -2.93309403035274        1.13991731671634        2.29659637487308
H            0.46772482537027        1.21273616767694        1.09030509347988
H            2.15319932872458       -0.73471402625301        1.45298619451890
H            4.60183077311804       -0.75865414443276        1.24631852666481
H            8.44595258779520       -1.27445722471209       -0.34818878840014
H            9.90023897666981       -0.56321219992010        1.52586539109519
H            9.16296997467501        1.25179307492280        3.02831616921437
H            6.99067333765099        2.35723360358108        2.65219265786883
H            5.54151471106463        1.63757333561267        0.79739342929906
H            4.25999940183858        0.12817370502889       -2.91617313555564
H            1.79864624318017        0.17606626230268       -2.70501900547174
