112
 energy: -188.089335204262 gnorm: 0.000126305887 xtb: 6.7.1 (edcfbbe)
N           -1.50247984568318       -3.65415255116560        0.86515231361996
C           -1.06062411575348       -2.58466041980669        0.85568039497651
C           -0.53614225689905       -1.30159454067542        0.83876352398781
C            0.87965808170787       -1.08327436040389        0.83831884112220
N            1.73775739418837       -2.19459131518268        0.85876293729090
C            2.77353650439411       -2.40003196519580       -0.02817183111682
C            2.99716025827970       -1.80622279495960       -1.26185184591177
C            4.13882599551211       -2.16854943926037       -1.95234233768511
C            5.02126198826563       -3.11477223147115       -1.44104956886933
C            4.76526702616471       -3.75841367971602       -0.24201184189506
C            3.62810584246828       -3.41023279957748        0.46813736220070
C            3.04885913014375       -3.85380264918646        1.70832065751536
C            3.42390011899301       -4.79626170654377        2.65186825446021
C            2.63349098410088       -4.95759340545466        3.77594653107471
C            1.49000191135819       -4.18703169760025        3.96693493642276
C            1.09938131612654       -3.23606536253067        3.04355828038057
C            1.88089598185007       -3.08127131491889        1.90742341161651
C            1.39647235249628        0.19275396522383        0.80417484451308
N            2.78926088514381        0.38750093655437        0.80057739741091
C            3.65476851379109       -0.18336193646849        1.70903993987244
C            3.37956466177165       -0.74055777037815        2.94945421596594
C            4.43753947048396       -1.26695788254690        3.66465515070865
C            5.73948645277354       -1.22265987730961        3.17079442741909
C            6.02710386059508       -0.62114830637159        1.95958293898211
C            4.97920417694292       -0.08788157978448        1.22423943574506
C            4.89261159294741        0.59631393168734       -0.03191253825422
C            5.80778483940181        0.95440783067285       -1.00874240699993
S            7.52378908860734        0.66213674899224       -0.99153157962591
C            7.69178990894948        1.42429280220851       -2.56152462730945
C            8.87448033362009        1.58303365395304       -3.26128663355768
C            8.83145864562310        2.21133957675119       -4.49261470616430
C            7.62604274430618        2.67194744789705       -5.01253323370866
C            6.44741270359769        2.51177817879999       -4.31286909110985
C            6.46382402035439        1.88187335021680       -3.07061900168045
C            5.37092415890763        1.60663904079917       -2.17729503592511
C            4.01290259602445        1.88916490761894       -2.35570093022608
C            3.08283781235312        1.52721308148587       -1.40733264282118
C            3.52566758124566        0.88475108365125       -0.25193200984330
C            0.53569715176069        1.33701047314512        0.78594118884781
C            1.06026584934787        2.61965220848520        0.75121648680865
N            1.50239106577079        3.68859044789571        0.71765051276466
C           -0.88011239638117        1.11882363639315        0.79281238741388
N           -1.73813434986865        2.23007357955562        0.76759680537764
C           -2.77342995982495        2.39945130043774       -0.12748926107601
C           -2.99655545163548        1.75602065435360       -1.33611813470486
C           -4.13794883471927        2.08998518914515       -2.04119946852906
C           -5.02054702614852        3.05624265936794       -1.56914734863451
C           -4.76495624130250        3.74814899562100       -0.39722456393750
C           -3.62808246765896        3.42909221425040        0.32694882507411
C           -3.04933389822234        3.92268458916442        1.54830657319040
C           -3.42464010953716        4.90286675760080        2.45251666781235
C           -2.63476576631429        5.10966519145168        3.56949236670184
C           -1.49160371023375        4.34721288682626        3.79233265769995
C           -1.10074654967044        3.35934019688449        2.90864621309055
C           -1.88163644049759        3.15868979367355        1.77928658286867
C           -1.39692017382333       -0.15755562252959        0.80970018092440
N           -2.78966583828170       -0.35252023107542        0.81229000273939
C           -3.65654475512811        0.25449669334377        1.69565431773162
C           -3.38311766281866        0.86223497369122        2.91250526111704
C           -4.44221007042532        1.41700417735043        3.60422451608474
C           -5.74354570579726        1.35175485977901        3.11106758947723
C           -6.02941889823282        0.70079075030415        1.92528371954700
C           -4.98036692568663        0.13837878615342        1.21368165039918
C           -4.89194414226194       -0.59670206520909       -0.01325256599708
C           -5.80585616439344       -0.99538847696502       -0.97543628433027
S           -7.52216196727553       -0.70440745896705       -0.97172339129155
C           -7.68800198214302       -1.53063144722096       -2.50920250295135
C           -8.86992982994688       -1.71930660958845       -3.20279209617421
C           -8.82519150654405       -2.39762290044818       -4.40723283437108
C           -7.61883621233020       -2.87784272414239       -4.90683015998584
C           -6.44097211058707       -2.68776888104210       -4.21338225368693
C           -6.45911596097355       -2.00740047306964       -2.99806230245648
C           -5.36729265259732       -1.69459333370622       -2.11584676434264
C           -4.00884272639036       -1.98287500315855       -2.28127759005377
C           -3.08003585898167       -1.58161946997813       -1.34759753703313
C           -3.52457028629677       -0.89289047755111       -0.21983498862652
H            2.30019590714404       -1.09249225154317       -1.67456037173089
H            4.34707309579302       -1.70634945322867       -2.90573972684907
H            5.91019273821969       -3.36264189359578       -2.00105498079857
H            5.43584893671826       -4.51589165165791        0.13339278666235
H            4.31573164209366       -5.38738208571766        2.51068796104340
H            2.90647716469609       -5.69003121374087        4.52072064186456
H            0.89527347144309       -4.33359626668377        4.85584599474355
H            0.21246360907250       -2.64274720369102        3.20307206842187
H            2.37580015250066       -0.75688404962804        3.34612876042219
H            4.24910366601750       -1.72168429693175        4.62529198261541
H            6.53825101308578       -1.65249442702034        3.75582109092563
H            7.03925166468177       -0.56253094768845        1.58985420320587
H            9.80492158888327        1.22390577710422       -2.84983816393854
H            9.74338045350711        2.34583512439895       -5.05424814497113
H            7.61467537172480        3.16114814531114       -5.97490982967603
H            5.51485475798854        2.87267995403848       -4.71911089447259
H            3.69355243307962        2.39137757119152       -3.25540225725666
H            2.03638394814511        1.74041308970752       -1.55701365189346
H           -2.29944885003273        1.02611177030676       -1.71922627179969
H           -4.34585786202186        1.58938682437065       -2.97508173700685
H           -5.90928001202410        3.28111140174790       -2.13908694188801
H           -5.43562496694930        4.52030849427026       -0.05319640884486
H           -4.31627828526347        5.48791496639313        2.28692789726604
H           -2.90793738114984        5.87189621343565        4.28367529518918
H           -0.89731107188343        4.52968916664439        4.67486467517661
H           -0.21410166010146        2.77276953978955        3.09273260256083
H           -2.37985476394112        0.89535225815988        3.30939716039666
H           -4.25514483643773        1.91091798752260        4.54558629286164
H           -6.54321833663282        1.80485130000051        3.67698781501465
H           -7.04109611785766        0.62643915413754        1.55709945276742
H           -9.80110646063225       -1.34462840799276       -2.80717881418783
H           -9.73649479852550       -2.55610872459133       -4.96358737765743
H           -7.60612488234662       -3.40613854474966       -5.84829504327136
H           -5.50768554535040       -3.06401975502029       -4.60371382458960
H           -3.68814728726255       -2.52114973141275       -3.15939029161540
H           -2.03325319807239       -1.79980237824888       -1.48747828400750
