112
 energy: -188.159214509173 gnorm: 0.000105703457 xtb: 6.7.1 (edcfbbe)
N           -1.56755970723094       -0.89555702931302       -3.58428011854741
C           -1.11049088085893       -0.85422318272440       -2.53453558712113
C           -0.54878831515142       -0.79516393974935       -1.23623924876289
C            0.84760430306072       -0.78349251747343       -1.09102561383188
N            1.67300434126007       -0.82820216652143       -2.21295677916800
C            2.75034811404180        0.02045426718886       -2.42564567303379
C            3.01110905047253        1.25436607711353       -1.85376523929814
C            4.16928290134772        1.90646393538176       -2.23437396838890
C            5.02847630023941        1.35782479964195       -3.18109541251654
C            4.73210986848581        0.16092296743109       -3.80477846468213
C            3.57724574374571       -0.51285175242115       -3.43470625122411
C            2.95951650102541       -1.73852342572379       -3.86338839411130
C            3.31013729975071       -2.70140632115507       -4.79850769973170
C            2.49551733479141       -3.80652357706815       -4.94730421307028
C            1.35273577380885       -3.96326989153683       -4.16936445002784
C            0.98571666326050       -3.01891516893210       -3.22842800552244
C            1.78883742467294       -1.89923565483480       -3.09222243945465
C            1.40176920429303       -0.72934329888076        0.20046646022942
N            2.78638572312738       -0.75832880952671        0.37185393437099
C            3.62079824271328       -1.68843528107730       -0.23095768816212
C            3.30425674685500       -2.92497184895407       -0.76761407371997
C            4.33420301066715       -3.67071722305018       -1.30959296799951
C            5.64735568606750       -3.20936097254866       -1.29431770634212
C            5.97499521998611       -2.00362350659586       -0.70565256895072
C            4.95451314082588       -1.23806827502542       -0.15933875096650
C            4.91746368249957        0.01956237816809        0.52770456964663
C            5.87523948807270        0.96219962390388        0.87250758921871
S            7.58657216337282        0.87545318106652        0.55893310097348
C            7.82771122190099        2.42893070966037        1.33150294429824
C            9.04222303894142        3.07475639677026        1.48767159981641
C            9.05868096237714        4.29873030045231        2.12840135505365
C            7.88053628008848        4.86671455089502        2.60371511900384
C            6.67130105047527        4.22178429810125        2.44576095718564
C            6.62785591475123        2.98694226122229        1.80397948951460
C            5.49480691986624        2.14095680378830        1.53332881542567
C            4.14886826165321        2.37168903217040        1.83008086149476
C            3.17869772389485        1.45571879022953        1.48680335218651
C            3.56980593853675        0.28277046695374        0.84886998824019
C            0.54977503236555       -0.65894143131465        1.31296850096479
C            1.11147860891215       -0.57930697235715        2.61014705573465
N            1.56837417502156       -0.50844193856485        3.65841608017435
C           -0.84663233066575       -0.66513145946628        1.16747285754330
N           -1.67202956410939       -0.59242147890834        2.28794767530462
C           -2.75101945566596        0.27191128815961        2.40978070295229
C           -3.01390838646963        1.43808074025279        1.71083913740968
C           -4.17346526038094        2.12446395979508        2.02031109217229
C           -5.03197827345860        1.67712432247239        3.01948128506663
C           -4.73353858697261        0.55332919285621        3.76607899957021
C           -3.57723795748593       -0.15348046434407        3.46939669443360
C           -2.95733756530517       -1.32587493812584        4.02513210626164
C           -3.30644781822955       -2.18534111683677        5.05661806909452
C           -2.48980751671375       -3.26703618479328        5.32132024856895
C           -1.34648973530220       -3.50284957092773        4.56440191372735
C           -0.98095578188748       -2.66239942153183        3.52907399863235
C           -1.78612902177880       -1.56487659406528        3.27535491688376
C           -1.40077192226592       -0.74891025495161       -0.12245583158278
N           -2.78531861024513       -0.79804542094317       -0.28978298781145
C           -3.61846063716957       -1.66025264804590        0.40821112720197
C           -3.30023983171524       -2.83265658894120        1.07260855276149
C           -4.32914438970890       -3.51816678284604        1.69075231742599
C           -5.64289048160399       -3.06267541894124        1.62712127817402
C           -5.97218136715104       -1.92643642041666        0.91423552855809
C           -4.95277347488925       -1.22170541007832        0.28967699345295
C           -4.91743719225486       -0.04373174219045       -0.52651609631290
C           -5.87643565494805        0.85605008608032       -0.96867746249464
S           -7.58759245758954        0.80092807799118       -0.64708817368488
C           -7.83074192557857        2.26392643966662       -1.57919625407847
C           -9.04603066366933        2.88833942948066       -1.80213725497810
C           -9.06405748783417        4.03786017282394       -2.56842645423486
C           -7.88669917981959        4.55381138107392       -3.10151033920000
C           -6.67668660761576        3.93047434218179       -2.87688479813452
C           -6.63166247501457        2.77029357962280       -2.10840581818767
C           -5.49755988290235        1.95889373173262       -1.75038928135697
C           -4.15196637499580        2.15861046868465       -2.07028419119093
C           -3.18060553704862        1.28521392321983       -1.63244353952323
C           -3.57015548862095        0.18576347144038       -0.87403317518812
H            2.33579661219455        1.69880955813283       -1.13744403137339
H            4.40819286529658        2.85914495515869       -1.78588721622620
H            5.93035759929975        1.88959135767121       -3.44362385258232
H            5.38155587589228       -0.24448030464793       -4.56504838016275
H            4.20496571718997       -2.58559191726137       -5.39033021598766
H            2.74823807157658       -4.56568938488593       -5.67204918271068
H            0.73843086800278       -4.84146003854391       -4.29927691278507
H            0.10156974236196       -3.16368505519066       -2.62534246104062
H            2.29179061397872       -3.30090475432737       -0.76260567456783
H            4.11146493108538       -4.62947526292392       -1.75264424808876
H            6.42294829542175       -3.81701940326430       -1.73494436594351
H            6.99657176773753       -1.65894211036057       -0.66391049491295
H            9.95048733387621        2.62540455358546        1.11712495319041
H            9.99556013242701        4.81797000344109        2.26248589359734
H            7.91574242465077        5.82333495182264        3.10324470991222
H            5.76036992001104        4.66519926119204        2.81847340164918
H            3.86821643562648        3.28526639927963        2.33052157458430
H            2.14149293889662        1.65508549733319        1.70911088279491
H           -2.33918811164907        1.80572924831429        0.95170724052694
H           -4.41403056586494        3.02402345087006        1.47373909501511
H           -5.93500247817418        2.23184336830185        3.22422644045956
H           -5.38250300168999        0.22915513534574        4.56476436592242
H           -4.20167352375712       -2.00939735490084        5.63281156658779
H           -2.74132738641993       -3.94593811999857        6.12212339835954
H           -0.73057898334181       -4.36125390585981        4.78635202193342
H           -0.09636052714071       -2.86835063369204        2.94472692613023
H           -2.28727923428005       -3.20569481196682        1.10715949327405
H           -4.10510286946369       -4.42436197696659        2.23273072622209
H           -6.41762792834090       -3.62125770274133        2.12982713520277
H           -6.99420814691189       -1.58939905445858        0.83655557831383
H           -9.95368020369808        2.47960553585894       -1.38587637092210
H          -10.00155507816146        4.53904372386634       -2.75615021386523
H           -7.92313712292381        5.45237075327559       -3.69913161477171
H           -5.76636396403679        4.33309534131767       -3.29465816801508
H           -3.87253008873530        3.01454974878693       -2.66451770866379
H           -2.14368318784104        1.46126060250150       -1.87484658720769
