  73
       -114.55103040
 N          5.7685738164       -4.2725638860        0.1295596112
 C          6.6589161897       -3.5359430714        0.1467795763
 C          7.7994067978       -2.7337826402        0.2220551708
 C          9.0230535795       -3.4091229298        0.2589353147
 C         10.2058722461       -2.7367709228        0.4554822534
 C         10.1822440392       -1.3401084184        0.6404230021
 C          9.0021571617       -0.6555384188        0.6087354280
 C          7.7561436868       -1.2933227031        0.3650866127
 C          6.5626606515       -0.5442549857        0.2395316802
 C          6.4194498903        0.7557749003        0.8246751168
 C          5.2735705026        1.4780425892        0.7068347743
 C          4.1614626875        0.9677697645       -0.0055357655
 N          2.9950183870        1.6925242413       -0.1228011387
 C          2.9052641611        3.0509520276       -0.4029102586
 C          3.9112102691        3.9654383289       -0.6687399405
 C          3.5434884496        5.2696895894       -0.9593933990
 C          2.2054298825        5.6525058783       -0.9989759365
 C          1.1944394475        4.7354463640       -0.7745056621
 C          1.5397581463        3.4230880290       -0.4849822843
 C          0.7761577004        2.2313915875       -0.2463475117
 C         -0.5791110992        1.9708726182       -0.1913370018
 C         -1.0192815736        0.6761823034        0.0888518546
 C         -2.4466996663        0.3696074087        0.1220102239
 C         -3.3662840620        1.3158993671        0.6090412569
 C         -4.7208973085        1.0725261045        0.6483811712
 C         -5.1805898809       -0.1486224243        0.1682693276
 C         -4.2719926884       -1.1262352225       -0.3050501700
 C         -2.9141259632       -0.8665886627       -0.3253388528
 C         -5.0627862842       -2.2684983693       -0.6767459208
 C         -4.7530339747       -3.5108947834       -1.2113772525
 C         -5.7839192749       -4.3931226772       -1.4725646140
 C         -7.1079331904       -4.0431000169       -1.2210301631
 C         -7.4406236077       -2.8113652612       -0.6880062236
 C         -6.4076172103       -1.9314739054       -0.4013673401
 N         -6.4610098477       -0.6466301644        0.1077974564
 C         -7.6247906210        0.0367622357        0.4897994332
 C         -7.8715106978        1.3186141416        0.0064523775
 C         -9.0165222517        1.9915198951        0.3907439729
 C         -9.9247684901        1.3921172275        1.2479193460
 C         -9.6820920566        0.1147162974        1.7258634312
 C         -8.5355026401       -0.5630036006        1.3548380150
 C         -0.0694846370       -0.3328460550        0.3488987626
 C          1.2859862632       -0.0926055947        0.3061131929
 C          1.7175862960        1.1873571660       -0.0266423301
 C          4.2824458417       -0.3114280559       -0.6010468431
 C          5.4319442478       -1.0279262734       -0.4916788562
 H          9.0190218075       -4.4839796524        0.1390920497
 H         11.1432782124       -3.2704707143        0.4801455550
 H         11.1112593475       -0.8111146575        0.7953433495
 H          9.0201124597        0.4192014326        0.7089545649
 H          7.2154186977        1.1431629793        1.4410391039
 H          5.1696424315        2.4199164475        1.2257102131
 H          4.9501304865        3.6753735084       -0.6719722333
 H          4.3107101543        5.9997497748       -1.1676165523
 H          1.9564086207        6.6780124429       -1.2273260390
 H          0.1571811516        5.0281294422       -0.8337597842
 H         -1.2888502146        2.7589910983       -0.3916634385
 H         -2.9934183793        2.2504557188        1.0001244207
 H         -5.4021161209        1.8037326479        1.0568358167
 H         -2.2281631330       -1.6038908906       -0.7125262971
 H         -3.7281809173       -3.7767853201       -1.4207458139
 H         -5.5647227791       -5.3659613950       -1.8861027307
 H         -7.8934916143       -4.7475388709       -1.4505445667
 H         -8.4712851571       -2.5425828441       -0.5126366784
 H         -7.1720771185        1.7724115069       -0.6798120423
 H         -9.2048642082        2.9848672541        0.0114090731
 H        -10.8195744407        1.9190244295        1.5424645814
 H        -10.3853280083       -0.3540973542        2.3979323687
 H         -8.3310995569       -1.5497218540        1.7428073036
 H         -0.4170890030       -1.3150468356        0.6287091705
 H          1.9887921582       -0.8745635997        0.5484465329
 H          3.4712389527       -0.6773881056       -1.2127522977
 H          5.5177733374       -1.9607576700       -1.0241249105
