89
 energy: -140.632514081852 gnorm: 0.000074291655 xtb: 6.7.1 (edcfbbe)
C           11.69732264499164       -0.00153505035949       -0.07103021000422
C           10.71940466157880       -0.78007309207754        0.52578428514439
C            9.39235450870383       -0.39717367135875        0.47770078805154
C            9.02878895693364        0.77787034959908       -0.18041936157780
C            7.66065349811692        1.24378981383937       -0.25587242549409
N            7.32106895083823        2.51338180162002       -0.31265065980186
N            6.00939062117175        2.60725414681544       -0.33847411317099
C            5.48699154606669        1.38852335442644       -0.31271155566026
C            4.08569056126538        1.13376225917934       -0.37328845211171
C            3.20561389295698        2.20733625692710       -0.10756471904229
C            1.85430523021537        2.03498670780007       -0.12269997022323
C            1.26159860557710        0.77307950371157       -0.40691073078010
C           -0.14668341040086        0.58107300559436       -0.39432809628403
C           -1.06019440761928        1.67476509781088       -0.46508865639529
C           -2.40787207768469        1.50674003804386       -0.42894927594865
C           -2.98766432293731        0.21210130617714       -0.30488331235162
C           -4.35960957352548       -0.07812890654615       -0.23667794256145
N           -4.82375860857056       -1.33212211776941       -0.34993463206500
C           -6.15046006939346       -1.25910608203572       -0.29343641163383
C           -7.08831135461416       -2.32604753863892       -0.40958350688606
C           -6.65615685231123       -3.63639619871307       -0.62996821272671
C           -7.56904583947415       -4.65573147291054       -0.76654657313533
C           -8.92767861871770       -4.36649533876284       -0.68693904025117
C           -9.36367877878131       -3.07782591322994       -0.46601605938524
C           -8.46379441741316       -2.01385897290338       -0.31411111384928
C           -8.89045152252356       -0.64812837994254       -0.05664981212179
C          -10.24042774958232       -0.32201144887011        0.10555638701434
C          -10.65863752500113        0.96200681220776        0.37719076709476
C           -9.72419760777584        1.98645359745526        0.51233826905298
C           -8.38982607176815        1.71425449047664        0.35648599209555
C           -7.93854859349997        0.41322464872982        0.05894159601319
C           -6.57629040986493        0.08061634934765       -0.10927756964531
N           -5.42447377195942        0.82320999962324       -0.08111820259454
C           -5.31789343235152        2.21420196596752        0.11912505928871
C           -5.65871275797418        3.09274230647472       -0.90588668983265
C           -5.54693145885927        4.45585247492429       -0.70305405974506
C           -5.09784855466273        4.94518086576695        0.51344332744793
C           -4.75974610390564        4.06924566648390        1.53227499380431
C           -4.86846462900623        2.70389851251091        1.34136498288136
C           -2.08093248161025       -0.89267535273210       -0.27857358318311
C           -0.73762061770747       -0.71665608027704       -0.31991836212007
C            2.16118729569180       -0.28335762981352       -0.71424144277626
C            3.51511597731933       -0.11187109380503       -0.70589055002108
N            6.52138209325384        0.47060486656235       -0.25490784070196
C            6.46006101247020       -0.93320249020260       -0.22936753390970
C            7.00743223310231       -1.64597702154147       -1.27020683195327
C            6.96731377249900       -3.04455697642242       -1.26546123320961
C            6.37916235460256       -3.71534778799705       -0.22876428273724
C            5.81649913429007       -3.01548837726277        0.85970376164817
C            5.21115385704889       -3.68778960611749        1.94159853946646
C            4.68450562685034       -2.99203232994671        2.99400685276789
C            4.74794962442163       -1.59183415598040        3.01715075888352
C            5.32374209298658       -0.90691310963537        1.98273714864080
C            5.86137259393302       -1.59624487984617        0.87738442792943
C           10.02280745649858        1.57103608087999       -0.75869392158708
C           11.34506877501327        1.18001919873496       -0.70547943846986
H           12.73160729613647       -0.30987648577630       -0.03353219004341
H           10.99139812377352       -1.69147637838544        1.03794436220691
H            8.64681532037089       -1.00113623883637        0.97276750205069
H            3.64213026368674        3.16633531458914        0.12432955008050
H            1.22316103609633        2.87284622949397        0.12817229575705
H           -0.67302171395665        2.67275766404570       -0.60000363325195
H           -3.04245858853597        2.37151950118304       -0.53447573784292
H           -5.59376077195849       -3.81270937147829       -0.69294040779172
H           -7.23951372211883       -5.66946502211234       -0.93793301751044
H           -9.65209845684417       -5.16017266786577       -0.79951177206828
H          -10.42687608198682       -2.90513972800664       -0.41542875905095
H          -10.99124595531184       -1.09142501125550        0.02556699646195
H          -11.71113739583747        1.17210090313271        0.49507659850818
H          -10.04866452473742        2.99032563280030        0.74235005459699
H           -7.67120831296991        2.50825036106825        0.47692521999886
H           -6.00800226766024        2.69844829342385       -1.84883415445567
H           -5.80853975044753        5.13752110825610       -1.49826409320009
H           -5.01088901980328        6.01006366101194        0.66657047582330
H           -4.41121666616861        4.44989069151070        2.48036912450923
H           -4.60326822811850        2.01061279724170        2.12551598591033
H           -2.51190754371680       -1.87805668167222       -0.20201726210654
H           -0.09826455333910       -1.58289960013067       -0.25311846204796
H            1.76883989163021       -1.24448204993539       -1.00743463765661
H            4.14978256005328       -0.93748929689015       -0.98972492330087
H            7.46645888453798       -1.11873629434574       -2.09371510970884
H            7.39983047505442       -3.58449470891743       -2.09402921361096
H            6.33901573245204       -4.79466936858859       -0.22556113148160
H            5.17276287087802       -4.76744027054776        1.92065087225887
H            4.22087695014253       -3.51594022466737        3.81675137955002
H            4.33842790656884       -1.05391062120613        3.85892924722509
H            5.37131111405026        0.17170772500916        2.01217501664616
H            9.73105225260922        2.48926672531154       -1.24393380251189
H           12.10629205858907        1.79650529194374       -1.16029085959754
