89
 energy: -140.713510740910 gnorm: 0.000091944998 xtb: 6.7.1 (edcfbbe)
C           11.59211633513594        0.44336550197577        0.18217755168745
C           11.28916972724363        1.66669510641632        0.75898264894802
C            9.98233720733186        1.97828470741821        1.07819778258339
C            8.95971336165102        1.06642618467109        0.81785366355154
C            7.60354297917837        1.43535585457823        1.18072513035388
N            7.29060184398008        2.20205077811488        2.19474031690148
N            5.96564376420160        2.30799445855172        2.25355488434659
C            5.44453906991566        1.61266916391722        1.27340480604223
C            4.02058898176580        1.49681761753054        1.02436909205943
C            3.15463995079880        1.62369841376964        2.11168457694640
C            1.79306426979496        1.50641218205181        1.93848206671270
C            1.25173183348271        1.26955399998241        0.67464808446868
C           -0.19853780141150        1.13701547957016        0.49112966824964
C           -0.97329777822667        0.44116836300272        1.41707312127150
C           -2.33606542527625        0.30430912505149        1.24758120827767
C           -2.96689686760463        0.86305149038463        0.13714089986161
C           -4.39637842612754        0.77063410138934       -0.10368045101086
N           -5.08003328052816        1.72676145211541       -0.68260954568036
C           -6.36696890022280        1.29751437628068       -0.72523194677890
C           -7.50292204997336        1.99460429246760       -1.22317618677569
C           -7.38775052163184        3.28708022693906       -1.74531909330807
C           -8.50005155481051        3.95543303081069       -2.19189761491227
C           -9.74618203475952        3.33630325931620       -2.11667940968023
C           -9.86987425662074        2.06383987356222       -1.60977547353045
C           -8.75564753469171        1.34407809156926       -1.15153621232117
C           -8.84754050101673       -0.01362697944527       -0.64260947050817
C          -10.06338662994064       -0.71171417258568       -0.62967628952516
C          -10.15456122058381       -2.01182803446981       -0.19250753231058
C           -9.01581881007807       -2.68395641226251        0.23936393692713
C           -7.80649605615201       -2.03400453741934        0.25104015068439
C           -7.69688845337620       -0.69845153210047       -0.16235624559656
C           -6.47026823212721        0.02390958586243       -0.16752304648204
N           -5.19519131018336       -0.29966153383847        0.23950348194501
C           -4.75088451130126       -1.47437374763148        0.87736504738377
C           -5.19160930556103       -1.77878568388775        2.16223120504598
C           -4.72783841163186       -2.91855292820472        2.79228469422126
C           -3.82339157106218       -3.75021020428679        2.15124942559463
C           -3.38299879674885       -3.44291839274007        0.87474937548994
C           -3.84381751287094       -2.30734187895102        0.23328567129419
C           -2.19827366272788        1.58689596170048       -0.77675229180864
C           -0.83735824201623        1.71539416126009       -0.60582177282866
C            2.11958718957134        1.17257295811015       -0.41129111060955
C            3.48476780067481        1.28438670938202       -0.24404058139861
N            6.45457753582216        1.02269473764159        0.54695435209044
C            6.35312027854895        0.22445673677311       -0.60645630203537
C            6.91375790545341        0.66841143901719       -1.77922032968452
C            6.81380896678156       -0.10151759352584       -2.94447671227461
C            6.14689719018000       -1.29444054258111       -2.92793799534021
C            5.56553230855926       -1.78221532067336       -1.73849909420451
C            4.87615372113051       -3.01220119573344       -1.69918877282720
C            4.33230939130940       -3.47401116324334       -0.53388859061450
C            4.46565777636281       -2.73391716541034        0.65014580262483
C            5.12521830576812       -1.53674107221197        0.64847942090398
C            5.67727940599734       -1.02391623447703       -0.54326363075712
C            9.27206519710149       -0.17101380879162        0.25931837009541
C           10.58318909847395       -0.47416587004207       -0.05810546525686
H           12.61364313704591        0.20162237198401       -0.07148686808647
H           12.07561625308724        2.37907819018049        0.95944663813964
H            9.72784082412214        2.92284367663829        1.53280617769666
H            3.57710176651677        1.81708059310649        3.08535085206405
H            1.13434136377353        1.61996825645253        2.78665987017258
H           -0.49858430572245       -0.01253417620286        2.27480055057865
H           -2.90850093635619       -0.22143359531665        1.99642799276297
H           -6.40566451475845        3.73275869876991       -1.77565714357381
H           -8.41665467364623        4.95422666006173       -2.59428913936089
H          -10.62605744499432        3.86115795027036       -2.46014457186203
H          -10.85528281524416        1.62745058665311       -1.56882788218748
H          -10.96189000394409       -0.22947381827531       -0.97922091919170
H          -11.10950488152890       -2.51644789661276       -0.19748488980846
H           -9.08020835483432       -3.71331895501585        0.55988902413101
H           -6.92400733559077       -2.56625993786452        0.56863885303061
H           -5.89545601152722       -1.12165026772745        2.65200141347291
H           -5.07098166871482       -3.15543898656248        3.78814379222937
H           -3.46203897749120       -4.63773000807605        2.64818541256850
H           -2.67879168503535       -4.09005166219052        0.37406900675616
H           -3.50514955210809       -2.05655150096488       -0.76094117123121
H           -2.69658377486266        2.04389646163636       -1.61735180732982
H           -0.26040013888394        2.28944294015013       -1.31581562183110
H            1.72033351312925        0.98920104119431       -1.39808572869611
H            4.12910723059216        1.22233045255619       -1.10829102046545
H            7.42988744036963        1.61720050426288       -1.79851627325130
H            7.26209897222250        0.26541595163379       -3.85515063247113
H            6.05659893864946       -1.88543817138787       -3.82745287450069
H            4.78843523613511       -3.58292840378592       -2.61243627654265
H            3.80356525034744       -4.41543541691692       -0.51401662755627
H            4.04498170747209       -3.11731599386093        1.56756036470936
H            5.23069042877045       -0.97962918604315        1.56766276472265
H            8.49935327243776       -0.90669251338214        0.09053237256887
H           10.81747800354756       -1.43562026201608       -0.49119990628106
