89
 energy: -140.714098322972 gnorm: 0.000057314399 xtb: 6.7.1 (edcfbbe)
C           11.60929810170490       -0.25640963541580        0.04511159600892
C           10.56510313990553       -0.86208120572186        0.72370928679986
C            9.27387633660488       -0.38725602998599        0.58683146257856
C            9.01739918132746        0.70227801060570       -0.24264951635655
C            7.68200971958067        1.24420906540128       -0.41722979811011
N            7.41125802162976        2.51101824923666       -0.60610178463599
N            6.09051911468764        2.65413295284691       -0.69496346747582
C            5.53200159716608        1.47682826808204       -0.56843546984667
C            4.10250911425214        1.23254573236343       -0.60296103132221
C            3.24862981975708        2.23943969694040       -0.15172954800522
C            1.88509156292768        2.04017447553851       -0.12843696701064
C            1.33408793417245        0.83014046453005       -0.54934134305770
C           -0.11373981179026        0.59683298740465       -0.49053931932240
C           -1.01782466938283        1.59232858210933       -0.85445306936940
C           -2.37951643713913        1.37168116870611       -0.80252067535622
C           -2.87786822244182        0.14538813952833       -0.36498512710755
C           -4.29297897008282       -0.17268928938274       -0.29344511749397
N           -4.75097944428147       -1.38421740135821       -0.49505182545883
C           -6.09872624337736       -1.30524199207935       -0.36050637414163
C           -7.05313288160054       -2.34782095897352       -0.52230399163602
C           -6.65761888749307       -3.64340127508477       -0.87066249194837
C           -7.59536086393002       -4.62901815808676       -1.05084301594184
C           -8.94568547455455       -4.32626449161811       -0.88732467253820
C           -9.34495659794018       -3.05678587715132       -0.54018993935686
C           -8.41642703276909       -2.02392132056291       -0.33868688349806
C           -8.80223231699581       -0.68122191803437        0.06044750289022
C          -10.13933691605144       -0.34929048212837        0.32050790330001
C          -10.51205660004194        0.90545628885804        0.74052125932453
C           -9.54906585650155        1.88979176794336        0.93723943964578
C           -8.22881881400848        1.60881779381912        0.68602903809076
C           -7.83058792452537        0.34408587822573        0.22951983866178
C           -6.47754624936227       -0.00018257991908       -0.04856118238784
N           -5.30538256482995        0.72185106236621       -0.01923922086593
C           -5.13028980567125        2.09591129960976        0.23917736203859
C           -5.62767414060497        3.04113873031701       -0.65342836798054
C           -5.42724828048671        4.38660627160167       -0.40673936784453
C           -4.72917188027029        4.79217523785268        0.71967728062737
C           -4.23175913211967        3.84965542484807        1.60408427527775
C           -4.42981109061976        2.50092393557662        1.36909917575782
C           -1.97327146186727       -0.85948601287935       -0.01446755601516
C           -0.61561745798925       -0.63743706834880       -0.07733249275515
C            2.18975009416864       -0.15859753343752       -1.03130672148210
C            3.55429403928777        0.03881133777429       -1.06760664608430
N            6.51012500785316        0.52556621423680       -0.38222919733653
C            6.35771048608065       -0.86603604610481       -0.24779848696388
C            6.92564051250614       -1.69495308230015       -1.18441319633417
C            6.76385033997964       -3.08246283444081       -1.08906563921226
C            6.02502150108621       -3.62247302147002       -0.07388804043719
C            5.43406292000453       -2.79961148087175        0.90805515782947
C            4.66717756267097       -3.33699264783529        1.96301687386567
C            4.11380375781718       -2.52454477589756        2.91203079018570
C            4.31803673719434       -1.13775847045761        2.86072284864804
C            5.05401760837073       -0.58254353075863        1.85164375669441
C            5.61339968642549       -1.39261959550055        0.84210650929271
C           10.07541894828346        1.32283039932917       -0.90584399236761
C           11.36219634452903        0.84229812413742       -0.76279275311041
H           12.61502466339680       -0.63480699575899        0.15300333503152
H           10.75610212439942       -1.70769242624234        1.36814277703807
H            8.47266677727244       -0.85346531009335        1.14151764806613
H            3.68059596647135        3.16968104473506        0.18311870741967
H            1.23639689138863        2.81843168974734        0.24595556825964
H           -0.64783026571578        2.54204995773149       -1.21218010074950
H           -3.05046477497364        2.15114769599078       -1.12954259720525
H           -5.60270589939582       -3.83154888288186       -0.99646148903212
H           -7.29530509028750       -5.63064751340076       -1.32147703975937
H           -9.68844011866079       -5.09713614104870       -1.03468022993332
H          -10.40118880409995       -2.87009583978578       -0.42784132641665
H          -10.90940622901569       -1.09396760242851        0.20005305728678
H          -11.55276074414946        1.12314504042073        0.93060786343124
H           -9.83640410760075        2.86933873137966        1.28987402942288
H           -7.48482070689025        2.37023470388894        0.85815719819190
H           -6.16907181774102        2.71221703787340       -1.52855891399068
H           -5.81407033089915        5.11981454573204       -1.09838082640208
H           -4.57287435587897        5.84368271693311        0.90681580716967
H           -3.68851473083144        4.16444044890114        2.48222312055874
H           -4.04401302474560        1.75707703307073        2.05024119988368
H           -2.36474749772117       -1.81228868357410        0.30567706251855
H            0.07030659067886       -1.41828938911425        0.21736889684863
H            1.77715572324828       -1.08482064117358       -1.40321037186008
H            4.18933567512640       -0.73371528804685       -1.47477517854125
H            7.49349165854940       -1.26993139117802       -1.99924714142232
H            7.21955019789842       -3.71567732839316       -1.83493044990940
H            5.88318542316722       -4.69104118383731       -0.00639908106386
H            4.52690109059361       -4.40751335688129        2.00439327372815
H            3.52367492471839       -2.94428143291112        3.71311472112825
H            3.89088560750890       -0.50826571840167        3.62678065754131
H            5.21438300716030        0.48518637329285        1.82860725315414
H            9.86447862486272        2.17988435424180       -1.52604915684602
H           12.17660044965567        1.32449599788343       -1.28283404131244
