89
 energy: -140.632540581078 gnorm: 0.000086602372 xtb: 6.7.1 (edcfbbe)
C           11.70717425840455        0.25462804548709       -0.36198369970475
C           10.77515856509293       -0.61541681627537        0.17932637783154
C            9.43839025087138       -0.26843242408111        0.22927396941604
C            9.01802867171561        0.96337688507354       -0.27290097652143
C            7.63732680381990        1.39515378371411       -0.23942022092238
N            7.26554075520456        2.65341417858734       -0.14129371911970
N            5.95277187376241        2.71198777938605       -0.10329733108276
C            5.45989789385196        1.48299859545086       -0.19107418466783
C            4.06307187085171        1.20365240115007       -0.22567861380118
C            3.17495266619767        2.24076157178864        0.14225395903720
C            1.82621806577891        2.05078065545232        0.14401275800549
C            1.24406129661909        0.80436384327515       -0.21856695014580
C           -0.16174624505779        0.59554892938083       -0.20241222577364
C           -1.08625047403890        1.68164545263134       -0.21405604087080
C           -2.43231306582825        1.49735331446379       -0.19717945497250
C           -2.99871410215043        0.19192346944502       -0.14744013715482
C           -4.36757151840453       -0.11868277919424       -0.11597868671919
N           -4.80693137114499       -1.38189051853656       -0.22855128629616
C           -6.13557174536314       -1.33339166877933       -0.20273551774192
C           -7.05100693786534       -2.41959381003732       -0.31894957486965
C           -6.58984324787457       -3.72663564069052       -0.49580161169657
C           -7.48033393096454       -4.76638925409584       -0.62558992746596
C           -8.84555953540513       -4.50128153288371       -0.58215106322746
C           -9.31018885098006       -3.21587234739214       -0.40541258517123
C           -8.43386139005944       -2.13093173006198       -0.26345940267925
C           -8.89173695088227       -0.76660637382191       -0.05772961920547
C          -10.25190295642126       -0.45892158356641        0.04535757030580
C          -10.70036232753157        0.82536842129946        0.26131320810118
C           -9.78841933689689        1.87023838684723        0.39471311483384
C           -8.44500439331657        1.61640360268775        0.29647766370228
C           -7.96216796402251        0.31405365598773        0.06098826216326
C           -6.58964684419204        0.00041661960470       -0.04883689432081
N           -5.45265989156955        0.76394518622478        0.00214341669454
C           -5.38608906471036        2.16284235112056        0.17009812101361
C           -5.62853048372411        3.00380402750182       -0.91236591083299
C           -5.55958160375516        4.37428780962436       -0.74157731612156
C           -5.25159603206949        4.90724289234282        0.50009456004479
C           -5.01268263260074        4.06838183210078        1.57658503277166
C           -5.07942104595369        2.69606370766251        1.41788598583502
C           -2.07887535360389       -0.90278896363200       -0.15543187207839
C           -0.73745921162212       -0.71056276707471       -0.18564362318007
C            2.14951919903023       -0.21666859199334       -0.61438896323355
C            3.50083531131644       -0.02529733714770       -0.62863732070323
N            6.51785406621891        0.59418258986735       -0.27619236420294
C            6.49688719571961       -0.80439765490437       -0.41424140070288
C            7.00036331252970       -1.37027196342307       -1.56196895014814
C            7.00479338921956       -2.76049261826822       -1.71967238119988
C            6.50638926796391       -3.56907439149717       -0.73554874092233
C            5.99142491258185       -3.02213987043437        0.45901977864655
C            5.47975660855556       -3.83771310024734        1.48947182707880
C            4.99800526883799       -3.28855599735017        2.64515889133994
C            5.01317774366946       -1.89861047275299        2.82657919864522
C            5.49800899182073       -1.07698595900465        1.84638604277236
C            5.98954398157922       -1.61362093678392        0.63961877924562
C            9.96673769371492        1.84631418565057       -0.79479980723119
C           11.29911161451951        1.49046626870246       -0.84048156560273
H           12.74929864539172       -0.02572099372357       -0.40204907309507
H           11.09104773386060       -1.57128048224545        0.57110398548289
H            8.73017721682221       -0.94687916988821        0.68058497063451
H            3.60476365141393        3.18601432495222        0.43484448266041
H            1.18932693515391        2.85784373497998        0.47037262780447
H           -0.70853546052548        2.68963863662245       -0.28846962426821
H           -3.07456211452212        2.36081912438730       -0.25180931682243
H           -5.52319358696134       -3.88430256227273       -0.52946847092158
H           -7.12835534654968       -5.77778571009614       -0.76273702692811
H           -9.55241069241575       -5.31155413871903       -0.68797611091188
H          -10.37728057976801       -3.06271662610059       -0.38072688306657
H          -10.98693064550607       -1.24290549281691       -0.03969126755332
H          -11.75973920511193        1.02075340073554        0.33448524214403
H          -10.13766156092651        2.87558032866629        0.57706936368474
H           -7.74424961647118        2.42710097521347        0.41117158518963
H           -5.86803291290458        2.57525537453396       -1.87434217242871
H           -5.74446873750850        5.02739945010629       -1.58102529086340
H           -5.19731222239301        5.97759637719636        0.62824911304523
H           -4.77416432479893        4.48336359433593        2.54413930898362
H           -4.89092963929400        2.03105368229532        2.24741537622340
H           -2.49913019686367       -1.89509892297979       -0.12143597980248
H           -0.08723272160091       -1.57087297494765       -0.15309799591864
H            1.76146776966620       -1.16128958198407       -0.96235043033622
H            4.13828236308579       -0.82011682102651       -0.98431424135142
H            7.39056863665297       -0.73385707849185       -2.34270982456044
H            7.40073049062867       -3.18383308315140       -2.63024633308186
H            6.50229840519926       -4.64234921226228       -0.85641857627842
H            5.47695397006105       -4.90860733591773        1.34548235052524
H            4.60664275958024       -3.92162364668076        3.42772284850575
H            4.63874094603748       -1.47757679908308        3.74754671192108
H            5.50854550913013       -0.00736051811490        1.99626661374889
H            9.63206460618642        2.80533006318108       -1.15812378673323
H           12.02474342270988        2.17699379921229       -1.25098923533269
