  89
       -140.63041245
 C         11.7149449270        0.3012216772       -0.3975273381
 C         10.7975780544       -0.5939750565        0.1279266139
 C          9.4568943530       -0.2662217521        0.1954740701
 C          9.0166418886        0.9723505358       -0.2734110576
 C          7.6327441124        1.3883018251       -0.2243385110
 N          7.2528117695        2.6449748947       -0.1173383880
 N          5.9430516420        2.6966914514       -0.0682431165
 C          5.4538231416        1.4644420922       -0.1590984347
 C          4.0586586194        1.1852941365       -0.1945874026
 C          3.1702754870        2.2282089172        0.1579095273
 C          1.8210507260        2.0418942485        0.1528507015
 C          1.2381867322        0.7944034755       -0.2025997605
 C         -0.1697738735        0.5896080189       -0.1948153104
 C         -1.0897798274        1.6765270877       -0.2257146561
 C         -2.4378149021        1.4952657608       -0.2148994950
 C         -3.0058331737        0.1932686922       -0.1537348140
 C         -4.3773284836       -0.1151820001       -0.1259218168
 N         -4.8173462232       -1.3768640853       -0.2356603580
 C         -6.1465677209       -1.3268070349       -0.2124050046
 C         -7.0623040344       -2.4126610562       -0.3249838619
 C         -6.6019838751       -3.7208831510       -0.4951471361
 C         -7.4932188111       -4.7606893412       -0.6207519403
 C         -8.8581378301       -4.4941696852       -0.5801855258
 C         -9.3220457164       -3.2074603307       -0.4097625457
 C         -8.4451191735       -2.1225506337       -0.2716900142
 C         -8.9015548830       -0.7572024875       -0.0716320429
 C        -10.2614872752       -0.4480377655        0.0299345007
 C        -10.7091720869        0.8374266976        0.2402154149
 C         -9.7964793527        1.8823563779        0.3693349789
 C         -8.4532778907        1.6272217766        0.2730011002
 C         -7.9709579520        0.3234954571        0.0432642906
 C         -6.5987909694        0.0081689175       -0.0637639771
 N         -5.4605620588        0.7697186083       -0.0134265132
 C         -5.3893140781        2.1676851781        0.1600392457
 C         -5.6353323482        3.0147290992       -0.9169198311
 C         -5.5592764553        4.3840099516       -0.7401998894
 C         -5.2406130099        4.9099492098        0.5018204569
 C         -4.9985569148        4.0651187299        1.5727631415
 C         -5.0723532649        2.6938574336        1.4081149940
 C         -2.0905879303       -0.9023256194       -0.1448023649
 C         -0.7472502667       -0.7133678728       -0.1674385990
 C          2.1428815178       -0.2328223528       -0.5819083783
 C          3.4950114150       -0.0465386910       -0.5879709222
 N          6.5167545607        0.5813706676       -0.2551256952
 C          6.5023480675       -0.8164858913       -0.3988460721
 C          7.0096327074       -1.3748212828       -1.5495989570
 C          7.0245724922       -2.7637059745       -1.7125650641
 C          6.5329515408       -3.5802138494       -0.7308603682
 C          6.0142824470       -3.0417790398        0.4658130216
 C          5.5099564231       -3.8655620235        1.4932913692
 C          5.0249723349       -3.3251404507        2.6520585696
 C          5.0294214325       -1.9362395383        2.8390828983
 C          5.5066345001       -1.1065541343        1.8614064142
 C          6.0012585789       -1.6338233159        0.6519733029
 C          9.9515325995        1.8805027394       -0.7787137241
 C         11.2877478026        1.5435823867       -0.8417783875
 H         12.7601748980        0.0353542813       -0.4517491618
 H         11.1286000711       -1.5551190067        0.4934480159
 H          8.7610455677       -0.9650172745        0.6344928191
 H          3.6006237859        3.1752427416        0.4438239647
 H          1.1842857950        2.8538644667        0.4671804857
 H         -0.7096553346        2.6829402549       -0.3091118932
 H         -3.0774645270        2.3597206058       -0.2838693724
 H         -5.5354706757       -3.8795962947       -0.5278066728
 H         -7.1416760062       -5.7729682761       -0.7522459673
 H         -9.5656525806       -5.3042550829       -0.6825143366
 H        -10.3890419257       -3.0536365294       -0.3865354660
 H        -10.9970001310       -1.2319458539       -0.0516246266
 H        -11.7684157272        1.0338169348        0.3120897274
 H        -10.1451795680        2.8887863927        0.5465467433
 H         -7.7521624537        2.4379442999        0.3850722661
 H         -5.8831380562        2.5917019727       -1.8792016782
 H         -5.7470621836        5.0419433279       -1.5752180174
 H         -5.1815483252        5.9794566586        0.6343514752
 H         -4.7521900208        4.4742909723        2.5407176104
 H         -4.8811877153        2.0243616586        2.2333224466
 H         -2.5127263700       -1.8935624231       -0.1033094835
 H         -0.0999385332       -1.5751819943       -0.1198701733
 H          1.7543302425       -1.1795594325       -0.9235124130
 H          4.1320879175       -0.8469441829       -0.9311810080
 H          7.3949226760       -0.7323338578       -2.3277317407
 H          7.4230265117       -3.1808000375       -2.6248969895
 H          6.5372050943       -4.6529607664       -0.8559479657
 H          5.5151934908       -4.9358141510        1.3446332724
 H          4.6397507520       -3.9647329432        3.4323736855
 H          4.6529870030       -1.5217316251        3.7621769108
 H          5.5081776002       -0.0375054791        2.0158187615
 H          9.6020311121        2.8439098422       -1.1154928971
 H         12.0017194518        2.2501446413       -1.2383654685
