  68
        -95.88048978
 C         -2.0227155311       -2.9984030978        0.5970545932
 C         -2.9658629315       -1.8707995520        1.0288415599
 C         -3.0070248697       -1.7622471778        2.5557075209
 C         -4.3511318780       -2.0661726134        0.4534908063
 C         -5.2390282488       -3.0967239680        0.6707160864
 C         -6.4696252268       -3.0682252483        0.0272517389
 C         -6.8029572374       -2.0224405689       -0.8190694741
 C         -5.9164795963       -0.9815174710       -1.0427627729
 C         -4.6880511286       -1.0069624930       -0.4030832707
 C         -3.5761632008       -0.0738662176       -0.4405524601
 C         -3.4020803676        1.1179310860       -1.1260430128
 C         -2.2144172397        1.8095411674       -0.9805030027
 C         -1.2013425393        1.3322449904       -0.1458884869
 N         -0.0014774826        2.0395602131       -0.0144047960
 C         -0.0066269884        3.4380464057       -0.0040322422
 C          1.0278882667        4.1537223364       -0.6069783762
 C          1.0221072679        5.5345895028       -0.5882600391
 C         -0.0138368057        6.2245920137        0.0199447639
 C         -1.0465010327        5.5188800226        0.6154305969
 C         -1.0452895122        4.1378344419        0.6101800329
 C          1.2014642083        1.3385389917        0.1211650195
 C          2.2087364106        1.8188058209        0.9610849837
 C          3.3968578672        1.1297786293        1.1142112940
 C          3.5770543466       -0.0626697599        0.4315517820
 C          2.5667666247       -0.5506276201       -0.4111426929
 C          1.3920322556        0.1413286788       -0.5778341002
 C          2.9794886716       -1.8628542556       -1.0386915799
 C          3.0416017221       -1.7549543655       -2.5648666951
 C          2.0289789146       -2.9887797141       -0.6198410213
 C          4.3576003039       -2.0597277273       -0.4468252722
 C          5.2450442058       -3.0938092001       -0.6488137234
 C          6.4690028442       -3.0646559331        0.0071590487
 C          6.7965552981       -2.0146540457        0.8504085717
 C          5.9103633423       -0.9704386435        1.0591979810
 C          4.6883015226       -0.9968783243        0.4075406205
 C         -1.3843823860        0.1341907619        0.5535184960
 C         -2.5590513703       -0.5597450321        0.3951692720
 H         -2.3556454389       -3.9483640036        1.0084466155
 H         -1.0125619742       -2.8008643846        0.9487140660
 H         -2.0056630491       -3.0784297772       -0.4881210310
 H         -3.3629423475       -2.6929082056        2.9911658149
 H         -2.0140284756       -1.5524806211        2.9465228264
 H         -3.6765510695       -0.9596039753        2.8575381717
 H         -4.9894806883       -3.9171950249        1.3281712202
 H         -7.1753055709       -3.8700655894        0.1888841956
 H         -7.7658725214       -2.0199460841       -1.3092307202
 H         -6.1788116211       -0.1677013631       -1.7025518432
 H         -4.1744585257        1.4996363807       -1.7768586490
 H         -2.0567548231        2.7313763541       -1.5211904941
 H          1.8318699410        3.6182623401       -1.0904579950
 H          1.8290987632        6.0761763015       -1.0597072151
 H         -0.0161531593        7.3039627583        0.0300575343
 H         -1.8560396710        6.0479498580        1.0966429513
 H         -1.8464755056        3.5901834430        1.0846238977
 H          2.0454892743        2.7397342961        1.5015698464
 H          4.1642073530        1.5131661041        1.7698661158
 H          0.6156067763       -0.2217292839       -1.2352316345
 H          3.7171241826       -0.9538712242       -2.8571937233
 H          3.4014154759       -2.6866452588       -2.9950495912
 H          2.0544717613       -1.5427340213       -2.9689877606
 H          1.0248736818       -2.7913794174       -0.9884067152
 H          1.9942695567       -3.0661697669        0.4650205889
 H          2.3679398429       -3.9398763649       -1.0234904750
 H          5.0004985954       -3.9173276207       -1.3042409002
 H          7.1738576759       -3.8697121714       -0.1417251818
 H          7.7543497379       -2.0118359851        1.3503878867
 H          6.1677998498       -0.1533361314        1.7167687549
 H         -0.6031366989       -0.2272224098        1.2062101066
  68
        -95.87999991
 C         -3.3566175809       -2.6214639231       -1.5988992138
 C         -3.4778400194       -2.1826955844       -0.1367846947
 C         -2.7435310744       -3.1656471392        0.7804860427
 C         -4.9263164913       -2.0307566775        0.2716513295
 C         -5.9205935130       -2.9838394522        0.2996917044
 C         -7.1934457839       -2.6128622607        0.7138663737
 C         -7.4631415494       -1.3072727470        1.0929689523
 C         -6.4694036331       -0.3422655252        1.0676810047
 C         -5.1987440344       -0.7088098950        0.6554254250
 C         -3.9793402523        0.0686684396        0.5255819194
 C         -3.7141011110        1.4053970171        0.7771276000
 C         -2.4355670897        1.8868866791        0.5696190240
 C         -1.4194165032        1.0510678814        0.1012767179
 N         -0.1298381064        1.5535608401       -0.1014998542
 C          0.0497403804        2.8502800235       -0.5942051991
 C         -0.8163466219        3.3683515753       -1.5571349426
 C         -0.6328608569        4.6486206759       -2.0416887543
 C          0.4163064449        5.4293007127       -1.5845991103
 C          1.2810252182        4.9188799325       -0.6301088304
 C          1.1010005099        3.6431208040       -0.1329535970
 C          0.9840933162        0.7581403869        0.1862558189
 C          0.9664247495       -0.1112910193        1.2795097474
 C          2.0571903755       -0.9066085292        1.5744362867
 C          3.1866742777       -0.8241814392        0.7755206398
 C          3.2112506336        0.0521710639       -0.3199882588
 C          2.1225965638        0.8331497258       -0.6233385574
 C          4.5403375844       -0.0229003056       -1.0367355877
 C          5.2617864532        1.3276221130       -0.9870134823
 C          4.3663233770       -0.4840503972       -2.4865342814
 C          5.2686340482       -1.0618634384       -0.2131640205
 C          6.5404604456       -1.5630339995       -0.3833063120
 C          7.0076076158       -2.5222800294        0.5060581100
 C          6.2111980726       -2.9705464694        1.5480585816
 C          4.9307798577       -2.4725030319        1.7263614504
 C          4.4616812901       -1.5156729630        0.8412792653
 C         -1.6920109214       -0.2959143825       -0.1602219877
 C         -2.9602134844       -0.7757775276        0.0596428580
 H         -3.8799328717       -1.9202953214       -2.2457736362
 H         -3.7911033076       -3.6091993535       -1.7343563195
 H         -2.3112533731       -2.6567900277       -1.8971112781
 H         -3.1620715960       -4.1640919602        0.6773535447
 H         -1.6867060693       -3.2015799726        0.5256840148
 H         -2.8407075939       -2.8540022565        1.8184850645
 H         -5.7215850918       -4.0047532365        0.0066796837
 H         -7.9821095691       -3.3506618235        0.7414270274
 H         -8.4602701419       -1.0404107411        1.4122596130
 H         -6.6821414854        0.6744156814        1.3635484338
 H         -4.4880705437        2.0638322274        1.1421466616
 H         -2.2084339593        2.9226689512        0.7758814159
 H         -1.6291940418        2.7579911785       -1.9226598808
 H         -1.3092560997        5.0361536082       -2.7894605335
 H          0.5590628925        6.4277341118       -1.9692424041
 H          2.0984598695        5.5222007501       -0.2631034328
 H          1.7709629953        3.2511948767        0.6183615053
 H          0.0843697451       -0.1522099245        1.9016559047
 H          2.0282508007       -1.5716986676        2.4245423505
 H          2.1302559009        1.5007302629       -1.4727573214
 H          5.3905427679        1.6462920878        0.0453382019
 H          6.2423207755        1.2496699038       -1.4507526246
 H          4.6845243320        2.0834354439       -1.5149071467
 H          3.7809801022        0.2420939226       -3.0459499153
 H          3.8528465604       -1.4428064581       -2.5166538812
 H          5.3356763076       -0.5943124080       -2.9669067194
 H          7.1704100408       -1.2203464248       -1.1917027907
 H          8.0034258012       -2.9231658430        0.3844555478
 H          6.5946114860       -3.7171471124        2.2285514710
 H          4.3118056416       -2.8239651724        2.5387340322
 H         -0.9052808477       -0.9369223811       -0.5305215771
  68
        -95.87996687
 C         -5.4092678691        1.6834585782       -0.2170415351
 C         -4.9310613175        0.3344462708       -0.7630298979
 C         -4.9515472736        0.3380823823       -2.2944082338
 C         -5.7558642974       -0.8048177912       -0.2063504215
 C         -7.1045330141       -1.0454883597       -0.3505637998
 C         -7.6543755715       -2.1664289333        0.2580467382
 C         -6.8629753210       -3.0313083904        0.9974554099
 C         -5.5055607246       -2.7975332433        1.1469897772
 C         -4.9540092385       -1.6797592115        0.5424155611
 C         -3.5898050734       -1.1826736523        0.5247954721
 C         -2.4290541523       -1.6709426428        1.1033802807
 C         -1.2469101222       -0.9775131860        0.9261901343
 C         -1.2074224781        0.1945259258        0.1679532688
 N         -0.0037590185        0.8870103660       -0.0011336593
 C         -0.0017660151        2.2856214090       -0.0180552477
 C          0.8642387547        2.9821584240       -0.8618968741
 C          0.8712035737        4.3630898859       -0.8672321130
 C          0.0123571541        5.0731884795       -0.0439963826
 C         -0.8554993950        4.3870194428        0.7898499977
 C         -0.8634153499        3.0059992710        0.8096449379
 C          1.1991383062        0.1886786086       -0.1473221650
 C          1.2348746824       -1.0132152654       -0.8579507667
 C          2.4175330572       -1.7094046184       -1.0195932581
 C          3.5832800783       -1.1923768317       -0.4769521282
 C          3.5521896478        0.0156499052        0.2359863554
 C          2.3747311249        0.7007024286        0.4119721143
 C          4.9342638231        0.3865765039        0.7236702427
 C          4.9855982997        0.4564666832        2.2526355741
 C          5.3878869546        1.7151514383        0.1104463443
 C          5.7584198014       -0.7687528360        0.2001556018
 C          7.1110918924       -0.9940398814        0.3311849857
 C          7.6585200767       -2.1368648646       -0.2375270899
 C          6.8611283612       -3.0380917389       -0.9253830585
 C          5.4999934851       -2.8193529933       -1.0623468105
 C          4.9507328524       -1.6802377201       -0.4969377057
 C         -2.3789172278        0.6808373366       -0.4220841522
 C         -3.5551686629       -0.0037322733       -0.2352439841
 H         -4.7533629679        2.4818225636       -0.5568873283
 H         -5.4066444855        1.6700903050        0.8710827920
 H         -6.4203562031        1.8925718118       -0.5588427971
 H         -5.9617435279        0.5111674173       -2.6584630260
 H         -4.3035089717        1.1224843313       -2.6784401723
 H         -4.6039982423       -0.6194022867       -2.6770114347
 H         -7.7306206629       -0.3779426688       -0.9249632516
 H         -8.7108479704       -2.3665540944        0.1537379200
 H         -7.3110526840       -3.8980311942        1.4619583015
 H         -4.8916130508       -3.4727151103        1.7243057208
 H         -2.4430058328       -2.5749955591        1.6941541916
 H         -0.3361098059       -1.3365825589        1.3823029774
 H          1.5280568804        2.4315300032       -1.5123522285
 H          1.5475976805        4.8887892555       -1.5252965039
 H          0.0193426104        6.1525833762       -0.0523354173
 H         -1.5261055111        4.9317902906        1.4382885903
 H         -1.5332318725        2.4743212429        1.4697161297
 H          0.3205377522       -1.3936309905       -1.2893752707
 H          2.4290694649       -2.6356286165       -1.5743724086
 H          2.3417981373        1.6246799899        0.9707112632
 H          4.6643089641       -0.4897378387        2.6830498871
 H          5.9993965084        0.6636216815        2.5871828240
 H          4.3306486105        1.2447568895        2.6165902201
 H          4.7360984725        2.5228113848        0.4362697528
 H          5.3549399578        1.6580132747       -0.9757620989
 H          6.4064747587        1.9438584511        0.4151021270
 H          7.7421172671       -0.2985304575        0.8658280841
 H          8.7179354191       -2.3260259981       -0.1417322576
 H          7.3076165504       -3.9215279577       -1.3587254953
 H          4.8806520283       -3.5232952899       -1.5983662091
 H         -2.3424960562        1.5829373592       -1.0154664656
  68
        -95.87989060
 C         -4.4750845767       -0.4264615831        2.4836656217
 C         -4.5872050845        0.0132638809        1.0213599261
 C         -5.2560330007        1.3884221229        0.9252462118
 C         -5.3283377465       -1.0123141619        0.1925101284
 C         -6.6246307733       -1.4583999112        0.3275176113
 C         -7.1022353338       -2.4107838971       -0.5637296423
 C         -6.2913865765       -2.9074265047       -1.5721002698
 C         -4.9858017481       -2.4659917631       -1.7140032733
 C         -4.5063853943       -1.5155515805       -0.8275323684
 C         -3.2098484115       -0.8684340794       -0.7351749765
 C         -2.0630801166       -0.9978724705       -1.5025293638
 C         -0.9611494420       -0.2196546036       -1.2024476094
 C         -0.9840123693        0.6781591834       -0.1324282673
 N          0.1267042239        1.4781747893        0.1502131925
 C         -0.0631712329        2.7864985557        0.6119613286
 C         -1.1020316448        3.5717497040        0.1121100104
 C         -1.2880979528        4.8583536819        0.5782750119
 C         -0.4416598537        5.3859943562        1.5398221630
 C          0.5953903014        4.6124622165        2.0352173187
 C          0.7848843538        3.3218475641        1.5811300899
 C          1.4229917236        1.0011457086       -0.0690359227
 C          2.4114855262        1.8587253833       -0.5574543625
 C          3.6977197646        1.4076872110       -0.7828096655
 C          3.9987561507        0.0791310970       -0.5290567850
 C          3.0086586580       -0.7871546908       -0.0409500187
 C          1.7322700127       -0.3371154591        0.1966219023
 C          3.5649260477       -2.1801187209        0.1519265076
 C          2.8503959610       -3.1798711757       -0.7636883631
 C          3.4653041679       -2.6258761979        1.6130172412
 C          5.0046018951       -1.9920921794       -0.2729690027
 C          6.0238451685       -2.9182744112       -0.3081458446
 C          7.2786159982       -2.5180212948       -0.7495204139
 C          7.5060068821       -1.2104418968       -1.1491234336
 C          6.4876827828       -0.2717908556       -1.1144599618
 C          5.2354621094       -0.6673651149       -0.6735691110
 C         -2.1358536566        0.7897292474        0.6546341130
 C         -3.2362659403        0.0293666538        0.3427960654
 H         -3.8669902066        0.2796794338        3.0445212949
 H         -4.0137667554       -1.4098926293        2.5461236153
 H         -5.4611475834       -0.4760277971        2.9397140799
 H         -6.2544936521        1.3545378531        1.3548582485
 H         -4.6698022712        2.1314413966        1.4614322433
 H         -5.3364748684        1.6940094485       -0.1159577165
 H         -7.2659438903       -1.0772782459        1.1092788292
 H         -8.1181323168       -2.7665104990       -0.4712742704
 H         -6.6839850750       -3.6457534297       -2.2564090762
 H         -4.3564893467       -2.8538438757       -2.5014225150
 H         -2.0302052428       -1.6827430130       -2.3367342613
 H         -0.0691772550       -0.2924956615       -1.8073462874
 H         -1.7572663440        3.1657620246       -0.6447402100
 H         -2.0951189860        5.4564693763        0.1809044222
 H         -0.5888459372        6.3929611958        1.8997583046
 H          1.2574844631        5.0142489198        2.7881885235
 H          1.5891254975        2.7168966558        1.9738377156
 H          2.1563800822        2.8877509100       -0.7647997146
 H          4.4499818473        2.0829244091       -1.1621583164
 H          0.9660242033       -0.9955395660        0.5793722413
 H          3.2926322528       -4.1681889980       -0.6620894188
 H          1.7953204777       -3.2405771797       -0.5063146718
 H          2.9379756965       -2.8657763420       -1.8017582244
 H          2.4230496807       -2.6983808942        1.9151337384
 H          3.9665142393       -1.9087050043        2.2597695958
 H          3.9341861378       -3.5983485889        1.7441140481
 H          5.8579131214       -3.9409262144       -0.0009334068
 H          8.0862842057       -3.2347280927       -0.7836673117
 H          8.4890017015       -0.9212664570       -1.4921369184
 H          6.6670046261        0.7464809794       -1.4265857863
 H         -2.1466884471        1.4745913644        1.4900099665
  68
        -95.87968774
 C         -5.3737650139        1.6977572879        0.2066816290
 C         -4.9716799844        0.4479985983       -0.5849341446
 C         -5.1146818341        0.6979747596       -2.0879426322
 C         -5.7765722138       -0.7533460317       -0.1407740357
 C         -7.1350658943       -0.9639678720       -0.2290948250
 C         -7.6616184362       -2.1552771711        0.2535459829
 C         -6.8380675673       -3.1184341672        0.8149272819
 C         -5.4710665641       -2.9141861208        0.9097448618
 C         -4.9427299198       -1.7266504245        0.4307175010
 C         -3.5753032620       -1.2403791877        0.3934670731
 C         -2.3906437746       -1.7992650763        0.8455063268
 C         -1.2130565925       -1.0920498221        0.6955106137
 C         -1.1979719169        0.1594007271        0.0747633166
 N         -0.0017195248        0.8681888802       -0.0696297699
 C         -0.0049687938        2.2651639689        0.0287411318
 C          0.8295900146        3.0300878406       -0.7864700375
 C          0.8327168874        4.4073719867       -0.6832266718
 C          0.0009768925        5.0456326568        0.2224460890
 C         -0.8331737096        4.2913186373        1.0314374803
 C         -0.8356934339        2.9130229322        0.9431381265
 C          1.2117129455        0.1954206823       -0.2497033227
 C          1.2709014127       -0.9655849118       -1.0239993204
 C          2.4585868964       -1.6532812804       -1.1869957140
 C          3.6082240080       -1.1655989485       -0.5858532708
 C          3.5586396178        0.0153335209        0.1700571121
 C          2.3753711480        0.6889475769        0.3501317757
 C          4.9281830244        0.3692194713        0.7032536791
 C          4.9395462966        0.4292237525        2.2327390759
 C          5.4071401316        1.6992481781        0.1112123277
 C          5.7593181169       -0.7840972163        0.1867758427
 C          7.1018298942       -1.0314847002        0.3713593675
 C          7.6584484037       -2.1691772533       -0.1987846357
 C          6.8802781575       -3.0423591939       -0.9424660831
 C          5.5299728563       -2.7997235234       -1.1358365165
 C          4.9712778031       -1.6661787902       -0.5684097538
 C         -2.3946419276        0.7150388435       -0.3922540544
 C         -3.5682654353        0.0236225229       -0.2153601932
 H         -4.7299474484        2.5342508346       -0.0563369474
 H         -5.2819199934        1.5102305578        1.2746886461
 H         -6.4045779961        1.9678529610       -0.0104868654
 H         -6.1445367917        0.9475798035       -2.3326799549
 H         -4.4746089846        1.5214653505       -2.3963083237
 H         -4.8308034701       -0.1917491601       -2.6459644614
 H         -7.7865922340       -0.2205704168       -0.6656753633
 H         -8.7250878325       -2.3341094039        0.1884014513
 H         -7.2682518316       -4.0395235948        1.1811668454
 H         -4.8313330967       -3.6662205348        1.3475537639
 H         -2.3829922129       -2.7662350222        1.3258817610
 H         -0.2870933890       -1.5045465224        1.0683173144
 H          1.4722492651        2.5350626888       -1.4998376408
 H          1.4832834569        4.9872064517       -1.3215297398
 H          0.0030475450        6.1224463866        0.2976392341
 H         -1.4804447573        4.7793927709        1.7454307438
 H         -1.4771505834        2.3272397639        1.5851876261
 H          0.3696133052       -1.3255038898       -1.4983045609
 H          2.4855987300       -2.5523635746       -1.7843426624
 H          2.3279696704        1.5851523763        0.9513746547
 H          5.9454378695        0.6265663607        2.5958507430
 H          4.2814358647        1.2205537983        2.5842930644
 H          4.5994087070       -0.5169327386        2.6483685522
 H          4.7536079059        2.5096396578        0.4265626113
 H          5.4004650175        1.6497443549       -0.9757730929
 H          6.4198109518        1.9174063886        0.4421752714
 H          7.7173413784       -0.3584038774        0.9508785361
 H          8.7094810279       -2.3766703761       -0.0593448165
 H          7.3332453161       -3.9226266656       -1.3754520897
 H          4.9260097422       -3.4821138767       -1.7155288097
 H         -2.3817566318        1.6786932670       -0.8802376625
