111
 energy: -152.291938400032 gnorm: 0.000048429534 xtb: 6.7.1 (edcfbbe)
C            6.68596631426072        1.41759051482221        4.16872928474248
C            7.01617729777050        0.95019579061877        2.74392873223017
C            7.95635394269051       -0.25405404408438        2.84486797069998
C            7.75172850344438        2.06569867447494        1.98742464327441
C            5.72294761680733        0.62300356420698        2.01307272607267
C            4.76983897179754        1.63579985321160        1.83956265195671
C            3.57452831005245        1.43318942664577        1.18169808475106
C            3.31980572681758        0.17249946133923        0.66425405236942
C            4.24924456640668       -0.87320978360083        0.85156437978388
C            5.44311343745941       -0.64285124888590        1.51918868921431
C            3.66689598959296       -2.04421155794068        0.25212310374509
C            4.10089695759432       -3.35430138302946        0.11262182378830
C            3.30302091346781       -4.27746175735647       -0.54756799941841
C            3.71067457835328       -5.73167847735603       -0.72856114423103
C            3.80320386589728       -6.04634111968415       -2.22852747035774
C            2.65637874270413       -6.63397466821268       -0.07125752925016
C            5.06741402056121       -6.04652910403142       -0.09261453044492
C            2.07811759127108       -3.84811385517377       -1.07604525060323
C            1.62394356584874       -2.55140903003565       -0.95321246827771
C            2.41627495932633       -1.64497605045739       -0.26624049584990
N            2.21624453742463       -0.30521947908165       -0.00947672873099
C            1.09784189064341        0.44913919855348       -0.39582279353812
C            1.28110392680192        1.61568104609443       -1.12281833598758
C            0.17570286463574        2.37656058485110       -1.52422184745485
C            0.27699408086607        3.57184694344688       -2.36253461915364
O           -0.67649451259304        3.87194814379962       -3.12891779675535
C            1.46307531403253        4.39120643217865       -2.29499171619085
C            2.39104578284358        4.44029336961049       -1.23502952832249
C            3.46920883038039        5.29334802748477       -1.30170261821463
C            3.60859523252708        6.11399502851167       -2.41963088806375
N            2.70123514788121        6.10690963972113       -3.38540405201616
C            1.67399425975051        5.31574884983586       -3.34788756669631
C           -1.11036166306368        1.90932196124492       -1.21259656214907
C           -1.28330432728348        0.75205698034260       -0.47431207643509
N           -2.57756774508810        0.33291082550106       -0.13814854703056
C           -3.09949853590075       -0.92923796825825       -0.32426814933804
C           -2.53339007905154       -2.05802712237333       -0.89697115023550
C           -3.30122817212382       -3.20134438794499       -0.97716266324277
C           -4.62265619187228       -3.26332282141882       -0.51537315277888
C           -5.38579957265440       -4.57227600912888       -0.64693479559967
C           -4.64021961097491       -5.66946045259639        0.12641786046666
C           -6.80911459935695       -4.48288583537804       -0.08977237164234
C           -5.47821705903486       -4.95285706299169       -2.13164290043803
C           -5.18763880738854       -2.12034558911916        0.03319958533719
C           -4.43714270612156       -0.95827968565345        0.12654357110349
C           -4.73018797567814        0.36491287195955        0.61053238770181
C           -5.85849888329079        0.93643625905587        1.17885368656406
C           -5.83204019005391        2.26763785994591        1.57055443112528
C           -7.03381542672281        2.96236194061047        2.19174679604405
C           -7.43461848607500        4.15385834002768        1.31020319342539
C           -8.24734111758251        2.03754611392535        2.32099873172933
C           -6.65990551256901        3.45653749182283        3.59666229199882
C           -4.64770929879250        2.99538245404287        1.39141955917585
C           -3.51059532058580        2.45171060879696        0.83020164439964
C           -3.55737538643464        1.12704182793772        0.42079054717250
C           -0.17943932214382        0.01238301212651       -0.04925033242662
H            6.14391676459820        0.63996270353772        4.70296039831984
H            6.07383410780414        2.31504278305337        4.16152578575125
H            7.60255134820935        1.63574962726360        4.71270904641877
H            8.86514791158813        0.03905030421762        3.36663260491596
H            8.23768085891203       -0.61462989370880        1.85813523718856
H            7.49588470171366       -1.06479300131794        3.40474292004954
H            7.96747492919339        1.74966749462991        0.96885178083219
H            7.15853880261737        2.97471621195188        1.94323074668897
H            8.69180062586196        2.29750771745531        2.48357146142716
H            4.96532565260604        2.61981921356950        2.23724199033324
H            2.85407097565828        2.23117028627854        1.08861700973493
H            6.13174095340250       -1.46164116262619        1.64369274810459
H            5.05920953522635       -3.62736591182744        0.52151012956429
H            4.11624503559884       -7.07782735619326       -2.37584782517573
H            2.84647608824095       -5.90788482479929       -2.72411793735745
H            4.53111821496190       -5.39299046967277       -2.70506652366470
H            2.94184243896431       -7.67882814048627       -0.17335100744811
H            2.57074691763836       -6.40126394670758        0.98822660899735
H            1.67960906414264       -6.50283449947049       -0.52827550795757
H            5.30356601192341       -7.09768596199388       -0.24549884780859
H            5.05064679949481       -5.85907187886013        0.97858683049634
H            5.85953028903939       -5.45613843714221       -0.54727529394126
H            1.45614828340854       -4.55103144358112       -1.60861844805746
H            0.68627410583763       -2.25092719300512       -1.39418173702360
H            2.27920766170283        1.88628222722443       -1.43024040353635
H            2.23174964587184        3.84604499321776       -0.34872670086772
H            4.18915992177592        5.34406905887049       -0.49876308654123
H            4.43638558581616        6.79657169078013       -2.53529483879448
H            0.95316239536093        5.35910837061570       -4.15347935385589
H           -1.96334453828105        2.46224454116843       -1.57315335383721
H           -1.52723616550898       -2.04404502956068       -1.28511031736488
H           -2.85455898859135       -4.07706349589905       -1.42231395008591
H           -3.64037027196898       -5.82585428380283       -0.26848505401289
H           -5.18324506164169       -6.60974318515147        0.05845141024155
H           -4.55303990950008       -5.39610895898433        1.17600674185910
H           -6.80028577982717       -4.23159212483463        0.96837514900180
H           -7.39504856897587       -3.74227462811336       -0.62905374140562
H           -7.30268125504582       -5.44618891996851       -0.20166441263523
H           -5.98369633398229       -4.16752313026148       -2.68974830382165
H           -6.04192515372391       -5.87623407405122       -2.24684623150046
H           -4.49372047720414       -5.09933876658925       -2.56687867383738
H           -6.20479659191629       -2.10851025966498        0.38718171498447
H           -6.73778213445812        0.32777025953332        1.30745520911033
H           -6.63046430139925        4.87997668920106        1.23300259769346
H           -8.30527397902253        4.65352456078231        1.72970397626324
H           -7.68200246231815        3.81231364893249        0.30728257234588
H           -8.56913045031362        1.67574021434275        1.34721201936435
H           -8.02644244861916        1.18845620181231        2.96381223009097
H           -9.07519334105658        2.58698996977332        2.76464290048104
H           -7.51678807428614        3.93687965557873        4.06425940107045
H           -6.35053581053698        2.61962921470870        4.21951237474309
H           -5.84544755298285        4.17448294705572        3.56223325143559
H           -4.60934075829055        4.02755709510966        1.70345212273864
H           -2.61411197275646        3.04227769203739        0.71991459815954
H           -0.30839151769234       -0.86941832291118        0.55825403324726
