  111
       -152.36438389
 C          8.2846704422       -1.3563625888        1.2079298433
 C          7.4671650171       -0.1448664871        1.6647763879
 C          8.1731647979        1.1217603208        1.1605466225
 C          7.4309119323       -0.1440577161        3.1995507846
 C          6.0414409934       -0.1678616536        1.1335165837
 C          5.1836416132        0.8927600206        1.4528243195
 C          3.8774946565        0.9605508382        1.0122217256
 C          3.4063599910       -0.0657236004        0.2088317711
 C          4.2403346989       -1.1586154839       -0.1037853036
 C          5.5499189766       -1.2033478271        0.3558150852
 C          3.4537379006       -2.0600475790       -0.9007200357
 C          3.7415984815       -3.2701644016       -1.5181060113
 C          2.7692172510       -3.9057641729       -2.2723220533
 C          3.0115478463       -5.2329659109       -2.9760707026
 C          2.0044192719       -6.2690571465       -2.4572407388
 C          4.4214274843       -5.7783451169       -2.7327677615
 C          2.8293893012       -5.0416270022       -4.4884775858
 C          1.5172645865       -3.2908062590       -2.4024619302
 C          1.2041013087       -2.0896471230       -1.7989913782
 C          2.1764289882       -1.4768184542       -1.0246794815
 N          2.1536100828       -0.2698773105       -0.3451915450
 C          1.0754934270        0.6130721650       -0.2957003456
 C          1.2685428532        1.9688520932       -0.5461972217
 C          0.1815291824        2.8366535513       -0.5345844852
 C          0.3568203647        4.2861643002       -0.8052866201
 O         -0.4865507502        4.9512595791       -1.3683978551
 C          1.6315769042        4.8802502203       -0.3261371488
 C          2.2526585450        5.8957923525       -1.0504724681
 C          3.4330784964        6.4349939774       -0.5713870907
 C          3.9471062565        5.9382426811        0.6185126184
 N          3.3444371941        5.0042965109        1.3354075570
 C          2.2163055825        4.4959731609        0.8818313480
 C         -1.1003499901        2.3520821250       -0.3011045630
 C         -1.2937695552        1.0011885899       -0.0301639780
 N         -2.5744952768        0.5112943776        0.2259217071
 C         -3.6980104044        0.7445702370       -0.5479162036
 C         -3.8349143114        1.4425713680       -1.7370061232
 C         -5.0818108155        1.4734470984       -2.3276487912
 C         -6.1998467332        0.8279220745       -1.7825766955
 C         -7.5296618557        0.9197822234       -2.5167746353
 C         -7.9432546469        2.3938956912       -2.6279810397
 C         -7.3726184203        0.3158906576       -3.9196042893
 C         -8.6518638633        0.1647047684       -1.7989438188
 C         -6.0454506824        0.1208584283       -0.6016203883
 C         -4.8018751235        0.0726728313        0.0148476687
 C         -4.3206023263       -0.5838552807        1.1999094063
 C         -4.9430182451       -1.3533019315        2.1738935013
 C         -4.2066829184       -1.8372486883        3.2427335710
 C         -4.8233146812       -2.6804513901        4.3494727063
 C         -4.1071946809       -4.0369956429        4.4096142129
 C         -4.6626355084       -1.9470297422        5.6887491480
 C         -6.3157150010       -2.9417091223        4.1278148212
 C         -2.8430949859       -1.5228838329        3.3127485252
 C         -2.1988758384       -0.7602473866        2.3595815556
 C         -2.9427858346       -0.2970141512        1.2862305495
 C         -0.2027559596        0.1370133542       -0.0165596196
 H          9.2966169671       -1.2798656293        1.6008925466
 H          8.3479523396       -1.3984118772        0.1229843809
 H          7.8514790202       -2.2830022164        1.5771174167
 H          7.6731083674        2.0209960008        1.5089300692
 H          8.1839708344        1.1374004146        0.0724508145
 H          9.2012293566        1.1445995026        1.5163780682
 H          8.4430133352       -0.1463808370        3.5991542862
 H          6.9152883410        0.7319957982        3.5827603051
 H          6.9138152281       -1.0298202544        3.5629519678
 H          5.5423139073        1.6999194422        2.0725919812
 H          3.2527976455        1.7915223635        1.3005926887
 H          6.1583485958       -2.0529672587        0.0946084993
 H          4.7281683836       -3.6862193013       -1.4006728110
 H          2.1117101774       -6.3909224831       -1.3812923381
 H          0.9815345182       -5.9677687626       -2.6649047539
 H          2.1783293226       -7.2320085950       -2.9329909240
 H          5.1766320335       -5.0956052076       -3.1152995018
 H          4.5971369319       -5.9489479674       -1.6731197236
 H          4.5364395267       -6.7290088560       -3.2497741790
 H          3.0207176494       -5.9769620497       -5.0104129256
 H          3.5247818189       -4.2908957661       -4.8585197501
 H          1.8205542068       -4.7184725391       -4.7294788593
 H          0.7549563995       -3.7632897070       -3.0028417881
 H          0.2330393810       -1.6421339275       -1.9485827395
 H          2.2552029648        2.3293455811       -0.7928303066
 H          1.8084888743        6.2336318608       -1.9755642362
 H          3.9463446685        7.2171531217       -1.1084877375
 H          4.8793965980        6.3074582396        1.0249121338
 H          1.7386996545        3.7630761345        1.5201107923
 H         -1.9330737215        3.0380920218       -0.3010832473
 H         -2.9963567822        1.9410803993       -2.1992827404
 H         -5.1846046444        2.0193244614       -3.2528893215
 H         -8.0403790363        2.8319428067       -1.6367636750
 H         -8.9006520036        2.4776015936       -3.1382606510
 H         -7.2102799376        2.9713184205       -3.1842533874
 H         -6.6309256057        0.8538967558       -4.5031456675
 H         -7.0604706186       -0.7240713462       -3.8479563253
 H         -8.3199329333        0.3562451198       -4.4533055552
 H         -8.4234002220       -0.8959144344       -1.7223874970
 H         -9.5769131019        0.2685781405       -2.3628145328
 H         -8.8193014939        0.5673807228       -0.8026357704
 H         -6.8673732370       -0.4050635790       -0.1454128361
 H         -5.9975762562       -1.5507882712        2.0780543641
 H         -3.0504928125       -3.9191647640        4.6324538428
 H         -4.1988373080       -4.5524988572        3.4557929307
 H         -4.5501401452       -4.6607036798        5.1834013963
 H         -5.1250451227       -2.5211538490        6.4890302021
 H         -3.6154848197       -1.7995221107        5.9378366127
 H         -5.1419332415       -0.9712608737        5.6421104934
 H         -6.7011867613       -3.5543885320        4.9404438888
 H         -6.8779639336       -2.0108518681        4.1143503874
 H         -6.4851454187       -3.4754902484        3.1954916450
 H         -2.2593288316       -1.8811939613        4.1468829618
 H         -1.1502001919       -0.5242022180        2.4640085475
 H         -0.3510186280       -0.9095924748        0.1999693191
