111
 energy: -152.362435939371 gnorm: 0.000042752719 xtb: 6.7.1 (edcfbbe)
C            8.74115948238139       -0.72108969160641       -1.13779407545583
C            7.70886261313700       -1.78317907491541       -1.52623619530909
C            8.18202165977216       -3.13271188473191       -0.96781330919593
C            7.64530527386998       -1.84728311995446       -3.05880837430004
C            6.32209058543998       -1.47756348700001       -0.97950230174790
C            5.27572132114548       -2.36781552942723       -1.25424755763074
C            3.98923453015563       -2.18078946568824       -0.79074151787684
C            3.73438551659034       -1.06446567645677       -0.01002101054798
C            4.76170450767840       -0.13620716114906        0.25373494631745
C            6.04735463168254       -0.34828203633849       -0.22619857072779
C            4.16945339247604        0.92137191608247        1.02625966400267
C            4.68531804236578        2.08284265345059        1.58546005438889
C            3.85923304958319        2.91878572620775        2.31831552459518
C            4.35168351806886        4.21284023101693        2.94958965017298
C            4.16385744703394        4.13641505450867        4.47129494399052
C            3.54157694294865        5.38770733557093        2.38335895127981
C            5.83290207130743        4.47842645418272        2.66676739394725
C            2.51934326522160        2.54835063984783        2.49156491811452
C            1.98085023601515        1.39983188132925        1.94720696953488
C            2.80911119606887        0.58816375654394        1.18818845938967
N            2.55256392407755       -0.61688013516249        0.55637165039720
C            1.32502344125210       -1.27515543754375        0.50281838220375
C            1.24903003486095       -2.63946914944608        0.76375290862168
C            0.02822224245515       -3.30065507210835        0.67964690648925
C            0.00152066712711       -4.75572953977251        0.97338477094312
O            0.81569492875675       -5.27977451376089        1.70538497530497
C           -1.06768001094398       -5.55328921058413        0.31905174373638
C           -1.61936611746489       -6.64529001300833        0.98766419412681
C           -2.59137791092463       -7.39910211360058        0.35583326098182
C           -2.97165946553419       -7.03447577121514       -0.92853172763347
N           -2.42864946941267       -6.02407471474864       -1.58645567098654
C           -1.50027275362536       -5.30700545528954       -0.98512790370186
C           -1.13067000846601       -2.59397016039613        0.37533257388866
C           -1.06414722490533       -1.22146083677555        0.15094891786390
N           -2.22651155212602       -0.50397619142574       -0.13376997893711
C           -3.42285286010126       -0.59547884981083        0.55707750639584
C           -3.75429210862180       -1.32845021391125        1.68340726189352
C           -5.03502451138047       -1.20635241822817        2.19233311737494
C           -5.99635578426514       -0.36830668160418        1.62218445506310
C           -7.40697174785911       -0.24317494285588        2.18058659258729
C           -7.64752699588113        1.21051031220674        2.61202651300850
C           -8.41343964124970       -0.63460294613281        1.08914989949876
C           -7.65043552679594       -1.14473789145929        3.39392606976364
C           -5.64083617191316        0.38617193599069        0.51151887163885
C           -4.36570175784395        0.28216562030552       -0.01931415843933
C           -3.70260652327362        0.93077349216472       -1.11830041686156
C           -4.11489503731667        1.86623332627246       -2.05297382913500
C           -3.23607215787793        2.30145536604053       -3.03649838893875
C           -3.70882033745472        3.34036256095902       -4.04362824857786
C           -2.62704459257062        3.72405576094123       -5.05691398869887
C           -4.90884880175526        2.77806248644176       -4.81869267031121
C           -4.12599537257919        4.61167352288039       -3.29038088760602
C           -1.94991555144136        1.75714850062569       -3.06725304617118
C           -1.51247545907923        0.82137540285062       -2.14684709813268
C           -2.38729312097734        0.42056316371408       -1.15203916845854
C            0.16416247087103       -0.56847823014683        0.19972554992820
H            9.71241568513127       -0.99325542609163       -1.54631507778003
H            8.83999125896638       -0.64889015711751       -0.05715419860067
H            8.47027797376247        0.25313743194825       -1.53823385450053
H            7.51964933495850       -3.94046095103653       -1.26603303138542
H            8.21022216989278       -3.09968695743233        0.11938764181076
H            9.18159167652714       -3.36012754685956       -1.33265149244510
H            8.63466127511504       -2.04296154184805       -3.46720344665269
H            6.97708259594835       -2.63456887682167       -3.39623635138980
H            7.28688518650364       -0.90127672604396       -3.45962501957491
H            5.46920056440887       -3.24237737411922       -1.85632920507510
H            3.21059529907928       -2.88467052667191       -1.04347727976146
H            6.80779604042003        0.38073841940226       -0.00154625540691
H            5.72890923233857        2.30538594143107        1.43871577643768
H            3.11718243628358        4.01794621074454        4.73709140097457
H            4.71565030489261        3.29020688608313        4.87545670317756
H            4.53313380659423        5.04587262552258        4.94083467787367
H            3.65584679395100        5.43581865369233        1.30229856305714
H            2.48374632173031        5.28642270872856        2.60917160854854
H            3.89220723239012        6.32531586019221        2.80980758926834
H            6.12814464799053        5.41681569789048        3.13213901178494
H            6.01841231044483        4.56076810416279        1.59828122578251
H            6.45756253579315        3.68917981414536        3.07858526017981
H            1.86773248832650        3.17766784926858        3.07835733777845
H            0.94777923373178        1.14394441489996        2.12867562059800
H            2.12878100166793       -3.19708376200761        1.04475519409633
H           -1.28312267812049       -6.87570786631394        1.98829364473225
H           -3.04530282277987       -8.24643294928893        0.84535664138899
H           -3.74009243665656       -7.57785842670631       -1.46234313903214
H           -1.06690633650816       -4.51036327442424       -1.57633528159405
H           -2.08382541126327       -3.09592816816404        0.31756834366859
H           -3.03639008374114       -1.97143387796550        2.17069418210590
H           -5.27767160737283       -1.78663560739108        3.06704309450690
H           -8.64666174453858        1.31804842693575        3.02920094926247
H           -7.55410727952838        1.89372822240081        1.77254954685921
H           -6.92333035013747        1.50187223328320        3.37004705238189
H           -8.33285502598662        0.01613972661458        0.22304686025712
H           -8.23542682842057       -1.65751921532760        0.76368983311058
H           -9.42924546204254       -0.56598070405506        1.47299834757950
H           -8.67502974556893       -1.01817912170879        3.73825962091644
H           -6.98714396930065       -0.88480794844111        4.21566737887828
H           -7.50985009435228       -2.19246162402898        3.13810711666019
H           -6.34356581532887        1.06329562143260        0.05106915905199
H           -5.12511696862052        2.24218314541184       -2.00358827992073
H           -2.31905063201858        2.86382535638637       -5.64674785337094
H           -1.75709480973571        4.14748043197741       -4.56017918601385
H           -3.02137655057625        4.47413102858646       -5.73973721076714
H           -5.25133603786409        3.50081278320128       -5.55641529641653
H           -4.62642689855437        1.86347108752731       -5.33603117437977
H           -5.73837665470645        2.55060525015767       -4.15508905520943
H           -3.28485451616408        5.00480846782483       -2.72301847440000
H           -4.45486197024992        5.37410604473463       -3.99352750153209
H           -4.93977827519911        4.41386759312949       -2.59839138087557
H           -1.25501080176162        2.06121526025828       -3.83225201523323
H           -0.51634242142606        0.41194602743350       -2.22310107205133
H            0.21505440296117        0.49189982056728        0.00863524860507
