  59
  -96.6834112200000       0.361017393793724      !
 C          0.2521960269        3.4056043655       -0.7050456211
 C         -0.2551040076        2.3724345387       -1.4759681860
 C          0.3352480713        1.1227514523       -1.4448985662
 C          1.4437128102        0.8974308135       -0.6400428260
 C          1.9707900384        1.9491280904        0.1003859461
 C          1.3720747662        3.1988709304        0.0776151745
 S          3.4354033294        1.6927660710        1.0674189817
 C          4.2300483849        0.5252586333       -0.0028239868
 C          5.6121657916        0.5214383199       -0.1153955700
 C          6.2335508123       -0.3850940485       -0.9542560481
 C          5.4738574265       -1.2669241224       -1.7063330734
 C          4.0945363974       -1.2601203105       -1.6029921320
 C          3.4608977743       -0.3875174784       -0.7248039166
 N          2.0612764040       -0.3764724409       -0.5872702900
 C          1.3164412589       -1.4644214683       -0.2174873578
 C          1.8962737366       -2.7424765072        0.0214571006
 C          1.0893676908       -3.7612108286        0.4304968691
 C         -0.2912495643       -3.5359937323        0.6496850516
 C         -1.1978789969       -4.5076173660        1.1083495489
 C         -2.5030297878       -4.1738693598        1.3580350500
 C         -2.9567406289       -2.8587309007        1.1735157707
 C         -2.1025403410       -1.8914436797        0.7143333212
 N         -2.5249734411       -0.5431622279        0.5263519794
 C         -2.9716296743       -0.2175446812       -0.7544656476
 C         -3.0527851582       -1.1998119063       -1.7433649189
 C         -3.5152880475       -0.9117721453       -3.0147872931
 C         -3.8984196884        0.3743639608       -3.3463457107
 C         -3.8176137361        1.3650497364       -2.3841154921
 C         -3.3726977576        1.0738747562       -1.1053385791
 S         -3.3596586851        2.4019308114        0.0636908788
 C         -2.1791627639        1.7774718189        1.2237817626
 C         -1.5454808420        2.7064071581        2.0307362681
 C         -0.6898179742        2.2975188729        3.0367064905
 C         -0.5043509688        0.9439166054        3.2447316952
 C         -1.1258911260        0.0166549998        2.4290465840
 C         -1.9461483408        0.4083762251        1.3700723394
 C         -0.7528533646       -2.2165131268        0.4219905940
 N          0.0380286614       -1.2339291018       -0.0253568345
 H         -0.2200499133        4.3755823807       -0.7200567416
 H         -1.1166700255        2.5368730434       -2.1042150241
 H         -0.0675046181        0.3117088150       -2.0301265093
 H          1.7895775172        3.9942388433        0.6753371340
 H          6.1872007178        1.2269002395        0.4638383558
 H          7.3097115318       -0.3933094355       -1.0315985686
 H          5.9549209867       -1.9595008547       -2.3799622269
 H          3.4960383159       -1.9324090919       -2.1997433598
 H          2.9582001198       -2.8888266154       -0.0938403175
 H          1.4983319607       -4.7445574705        0.6182057917
 H         -0.8458396882       -5.5166037468        1.2696080448
 H         -3.1956496461       -4.9213067271        1.7143400998
 H         -3.9826715616       -2.6042682111        1.3940514588
 H         -2.7519084792       -2.2096960301       -1.5119843398
 H         -3.5703585332       -1.7032081436       -3.7473715545
 H         -4.2574368227        0.6073764114       -4.3366066139
 H         -4.1141413543        2.3789280634       -2.6081143338
 H         -1.7479765161        3.7541593162        1.8687470675
 H         -0.1955562761        3.0262239767        3.6597726853
 H          0.1298612998        0.5978220383        4.0471135047
 H         -0.9735837366       -1.0329017702        2.6250509686
  59
  -96.6833530300000       0.339457848467721      !
 C          0.3211844855        3.4474118480       -0.5593798001
 C         -0.2391822338        2.4298967617       -1.3139442858
 C          0.3317684793        1.1706475323       -1.3239854227
 C          1.4727873161        0.9191525250       -0.5741887080
 C          2.0547464630        1.9568468152        0.1455455447
 C          1.4766984997        3.2163035071        0.1624646540
 S          3.5636614972        1.6718925249        1.0338871136
 C          4.2817892636        0.4970206190       -0.0815497671
 C          5.6552031703        0.4731672106       -0.2710026138
 C          6.2148533510       -0.4404238963       -1.1450004324
 C          5.4011085594       -1.3107405510       -1.8529154106
 C          4.0301537614       -1.2839849892       -1.6723996806
 C          3.4595240712       -0.4014717308       -0.7611968700
 N          2.0695156913       -0.3651450277       -0.5525773622
 C          1.3214613820       -1.4501927593       -0.1812150042
 C          1.9042542429       -2.7257714340        0.0655174732
 C          1.1000837826       -3.7436743509        0.4812999027
 C         -0.2824869643       -3.5220720929        0.6922205677
 C         -1.1885809847       -4.4966531227        1.1453935551
 C         -2.4991078372       -4.1701407590        1.3754707213
 C         -2.9588600667       -2.8595578504        1.1750807301
 C         -2.1042174927       -1.8883597377        0.7250183762
 N         -2.5407856260       -0.5476810219        0.5170583027
 C         -2.9478567700       -0.2326551018       -0.7796451059
 C         -2.9468553960       -1.2082122700       -1.7784042879
 C         -3.3629908228       -0.9249721948       -3.0667504463
 C         -3.7809030825        0.3488695770       -3.4045927402
 C         -3.7847918584        1.3320282540       -2.4313836185
 C         -3.3872103311        1.0447275745       -1.1362785175
 S         -3.4877374852        2.3531466048        0.0505289412
 C         -2.2985282134        1.7792671652        1.2278402142
 C         -1.7162745516        2.7310363217        2.0467524177
 C         -0.8590589467        2.3535995177        3.0637702952
 C         -0.6180647293        1.0080395578        3.2686038680
 C         -1.1870263273        0.0584531346        2.4403113923
 C         -2.0101933411        0.4205382280        1.3733360008
 C         -0.7478775454       -2.2053770465        0.4552006930
 N          0.0426394312       -1.2214311438        0.0094807337
 H         -0.1353871736        4.4248604156       -0.5416994862
 H         -1.1265681885        2.6146320385       -1.8990583894
 H         -0.1110368216        0.3735384300       -1.8990146995
 H          1.9367400622        3.9994504454        0.7450887040
 H          6.2721827639        1.1682804258        0.2767724445
 H          7.2846827033       -0.4643569472       -1.2829295264
 H          5.8334056936       -2.0100526946       -2.5521897367
 H          3.3893314768       -1.9484975036       -2.2329043154
 H          2.9669684528       -2.8689936302       -0.0476796121
 H          1.5118157898       -4.7239778102        0.6786914100
 H         -0.8326515939       -5.5028588768        1.3153213754
 H         -3.1919382157       -4.9202532890        1.7256821464
 H         -3.9904225746       -2.6114503947        1.3756515960
 H         -2.6182425292       -2.2080775805       -1.5415226587
 H         -3.3545375686       -1.7101016816       -3.8080609528
 H         -4.1035758160        0.5775226521       -4.4082982503
 H         -4.1133999431        2.3349957215       -2.6595516463
 H         -1.9596498421        3.7700485996        1.8850093985
 H         -0.4044165824        3.0998364660        3.6964536416
 H          0.0213722039        0.6862143361        4.0773752145
 H         -0.9913160751       -0.9845873954        2.6322645671
  59
  -96.6832347600000       0.299524757738555      !
 C          0.1585589405        3.3192861284       -0.9632450913
 C         -0.2731178181        2.2445977934       -1.7237637742
 C          0.3537224117        1.0174551336       -1.6157567650
 C          1.4184364124        0.8541944229       -0.7397053535
 C          1.8633575882        1.9433397596       -0.0007227927
 C          1.2326352032        3.1731745535       -0.1061407530
 S          3.2587679514        1.7579776027        1.0773125486
 C          4.1611824247        0.5819215456        0.1063766513
 C          5.5475686402        0.6134521172        0.1028187103
 C          6.2568630776       -0.2950170629       -0.6607518102
 C          5.5820352611       -1.2127363805       -1.4497054794
 C          4.1989518740       -1.2416150386       -1.4552804291
 C          3.4751551251       -0.3696293812       -0.6492700193
 N          2.0689785846       -0.3985337510       -0.6156791505
 C          1.3279824189       -1.4883226902       -0.2415016314
 C          1.9033771609       -2.7653005468        0.0108817025
 C          1.0868670714       -3.7850650771        0.3992258332
 C         -0.2969023771       -3.5590517493        0.5967939770
 C         -1.2139019881       -4.5293780749        1.0373872161
 C         -2.5181614113       -4.1879707455        1.2822574935
 C         -2.9591809398       -2.8655869734        1.1197936677
 C         -2.0954264948       -1.8991990399        0.6758335235
 N         -2.4922598971       -0.5388762873        0.5261033457
 C         -3.0141026838       -0.1831197732       -0.7173252380
 C         -3.2095455777       -1.1555712560       -1.7001870893
 C         -3.7624882958       -0.8452321305       -2.9294246257
 C         -4.1239916836        0.4554519270       -3.2262793834
 C         -3.9193859196        1.4386304590       -2.2751024995
 C         -3.3809763079        1.1262913811       -1.0376900042
 S         -3.1980604582        2.4595274568        0.1099576040
 C         -2.0118340019        1.7621452938        1.2205668264
 C         -1.3019837360        2.6528596022        2.0075704626
 C         -0.4385313058        2.1965093672        2.9860515399
 C         -0.3286381290        0.8346807253        3.1934325057
 C         -1.0272510388       -0.0546939768        2.3983448682
 C         -1.8486695513        0.3819656308        1.3572620373
 C         -0.7504831049       -2.2360088768        0.3746631552
 N          0.0474922827       -1.2568810465       -0.0656652470
 H         -0.3411213651        4.2724958197       -1.0399176444
 H         -1.1039880250        2.3586749150       -2.4028871492
 H          0.0118699094        0.1743448498       -2.1946599592
 H          1.5869658935        3.9997630978        0.4899510613
 H          6.0562179531        1.3478266731        0.7077073864
 H          7.3356437247       -0.2763232480       -0.6514255809
 H          6.1327274086       -1.9059871708       -2.0669962883
 H          3.6679001786       -1.9409503384       -2.0838103134
 H          2.9672680975       -2.9124008152       -0.0815953474
 H          1.4911593688       -4.7698228137        0.5897013192
 H         -0.8707128632       -5.5426440903        1.1905794915
 H         -3.2187370218       -4.9343118173        1.6251993379
 H         -3.9816273389       -2.6044085713        1.3487811309
 H         -2.9260895060       -2.1763643010       -1.4967282007
 H         -3.9061941431       -1.6308001839       -3.6561656791
 H         -4.5580175345        0.7059464661       -4.1816347240
 H         -4.1886627117        2.4652017677       -2.4740841442
 H         -1.4514674105        3.7103975150        1.8514678263
 H          0.1182916765        2.8955039528        3.5900496247
 H          0.3057446661        0.4523033670        3.9790602967
 H         -0.9340374732       -1.1108895583        2.5961561787
