  59
  -96.3036206138000       0.377788675933574      !
 C          0.3038314277        3.4398666075       -0.6129582940
 C         -0.2334052275        2.4047670409       -1.3603946040
 C          0.3479040747        1.1504348906       -1.3374923123
 C          1.4761263740        0.9216166701       -0.5615248495
 C          2.0354638315        1.9764751144        0.1511591999
 C          1.4469232627        3.2310728495        0.1349917989
 S          3.5290764904        1.7197215983        1.0733159806
 C          4.2783608223        0.5319517486       -0.0074276029
 C          5.6553518352        0.5165221962       -0.1698616043
 C          6.2393583290       -0.4072021902       -1.0168556393
 C          5.4466890116       -1.2964821909       -1.7251152776
 C          4.0723068348       -1.2782841316       -1.5716183399
 C          3.4768529200       -0.3850840328       -0.6871034021
 N          2.0827960590       -0.3569943329       -0.5060468871
 C          1.3365455081       -1.4418054327       -0.1303890328
 C          1.9248287844       -2.7079377478        0.1497129790
 C          1.1210611072       -3.7253282763        0.5675233900
 C         -0.2671186209       -3.5118943096        0.7478007940
 C         -1.1738690915       -4.4861936666        1.2002658877
 C         -2.4912512407       -4.1669258780        1.3992603833
 C         -2.9577095780       -2.8639502780        1.1672538599
 C         -2.1024319985       -1.8934173381        0.7169629536
 N         -2.5458099685       -0.5602847167        0.4773133434
 C         -2.9301199472       -0.2711290446       -0.8322983602
 C         -2.9017024410       -1.2637111707       -1.8137288790
 C         -3.2949776354       -1.0062685505       -3.1146083416
 C         -3.7166291089        0.2579596632       -3.4825730009
 C         -3.7474980724        1.2576769711       -2.5268719428
 C         -3.3728710447        0.9961331355       -1.2195237160
 S         -3.5071732399        2.3239099183       -0.0578224864
 C         -2.3364598057        1.7805450607        1.1520547071
 C         -1.7780565700        2.7512060899        1.9653836956
 C         -0.9377474326        2.3986603846        3.0051887623
 C         -0.6897990236        1.0589296382        3.2380185815
 C         -1.2347483765        0.0904023551        2.4155313749
 C         -2.0399184677        0.4270278414        1.3267107103
 C         -0.7385508745       -2.2034869897        0.4789614839
 N          0.0524266903       -1.2206793388        0.0315505708
 H         -0.1609702111        4.4135549257       -0.6211112837
 H         -1.1107117452        2.5718340308       -1.9656725271
 H         -0.0770937577        0.3397950806       -1.9070167328
 H          1.8891197528        4.0280306133        0.7126843959
 H          6.2558492232        1.2261970666        0.3775579612
 H          7.3118300287       -0.4244061808       -1.1336483831
 H          5.8982182062       -2.0040393149       -2.4036336431
 H          3.4479698316       -1.9577861974       -2.1327562702
 H          2.9906802466       -2.8440431230        0.0595816472
 H          1.5368693121       -4.6985456641        0.7898586728
 H         -0.8131047193       -5.4862566586        1.3945190592
 H         -3.1846154330       -4.9167583552        1.7490147774
 H         -3.9949744172       -2.6212080935        1.3435067315
 H         -2.5696038010       -2.2565133388       -1.5531827028
 H         -3.2656781725       -1.8039576260       -3.8418460716
 H         -4.0215578712        0.4665263302       -4.4961523358
 H         -4.0797869217        2.2537309435       -2.7787613389
 H         -2.0267193676        3.7851681950        1.7809168200
 H         -0.5016218898        3.1595318178        3.6334615155
 H         -0.0636202287        0.7565432865        4.0644717059
 H         -1.0342952171       -0.9474721065        2.6293471932
  59
  -96.3035487090000       0.350109405388837      !
 C          0.2380358751        3.3949693485       -0.7591806788
 C         -0.2456995313        2.3443874794       -1.5216717345
 C          0.3541282774        1.1004933144       -1.4574640948
 C          1.4485179311        0.8985166112       -0.6275406481
 C          1.9524683849        1.9672652045        0.1045267790
 C          1.3441171935        3.2112909913        0.0484525319
 S          3.4000235269        1.7400780223        1.1039949196
 C          4.2248680552        0.5611011922        0.0697804683
 C          5.6089001642        0.5671001361       -0.0159785893
 C          6.2538859847       -0.3484359953       -0.8267770008
 C          5.5162098746       -1.2495285680       -1.5779389698
 C          4.1351288451       -1.2526798645       -1.5014052995
 C          3.4774037718       -0.3704934356       -0.6509389677
 N          2.0753265905       -0.3689876868       -0.5406902398
 C          1.3323489441       -1.4566993801       -0.1664985968
 C          1.9178443540       -2.7254670153        0.1058039037
 C          1.1114797641       -3.7438282788        0.5168355347
 C         -0.2749374030       -3.5266210304        0.7053525234
 C         -1.1823542448       -4.4978734462        1.1632454747
 C         -2.4948024025       -4.1709876622        1.3818196852
 C         -2.9555669031       -2.8631324216        1.1657159993
 C         -2.1005219981       -1.8966705994        0.7063675713
 N         -2.5302191686       -0.5554720539        0.4868308194
 C         -2.9545012360       -0.2557896997       -0.8078496759
 C         -3.0083593964       -1.2556096781       -1.7808944807
 C         -3.4483604184       -0.9934710596       -3.0658353842
 C         -3.8354618309        0.2834534257       -3.4270600749
 C         -3.7815027151        1.2912277824       -2.4808285169
 C         -3.3592022440        1.0259316546       -1.1888208672
 S         -3.3797778904        2.3740016244       -0.0430386994
 C         -2.2170272827        1.7796956316        1.1503354762
 C         -1.6067878598        2.7277585094        1.9531018450
 C         -0.7675590165        2.3435635155        2.9823801440
 C         -0.5751218567        0.9953745427        3.2174674204
 C         -1.1730659281        0.0489379159        2.4061789070
 C         -1.9757248203        0.4153567157        1.3248973372
 C         -0.7427880342       -2.2152357246        0.4458601932
 N          0.0485973119       -1.2338146436       -0.0031468921
 H         -0.2417390522        4.3604917017       -0.8001869754
 H         -1.0961862801        2.4906377205       -2.1692157652
 H         -0.0305134577        0.2760875268       -2.0361673578
 H          1.7433905547        4.0203657756        0.6402033083
 H          6.1667652130        1.2873071398        0.5618986349
 H          7.3313796733       -0.3488271454       -0.8831547458
 H          6.0159403123       -1.9494946350       -2.2299956469
 H          3.5538758200       -1.9402213893       -2.0978244136
 H          2.9829746160       -2.8647426268        0.0136121411
 H          1.5247342217       -4.7202787144        0.7294909647
 H         -0.8252875867       -5.5008990636        1.3488054551
 H         -3.1880966158       -4.9180386558        1.7376231724
 H         -3.9876420399       -2.6136441698        1.3619252064
 H         -2.7038017922       -2.2587595928       -1.5262091723
 H         -3.4826888848       -1.7978555292       -3.7854676371
 H         -4.1770242613        0.4963011721       -4.4279775061
 H         -4.0818885786        2.2985353881       -2.7281200292
 H         -1.8146467822        3.7708024315        1.7690267814
 H         -0.2914924739        3.0870776626        3.6021095993
 H          0.0461561576        0.6685687544        4.0378544174
 H         -1.0160315769       -0.9957510205        2.6233192118
  59
  -96.3033105024000       0.272101918677589      !
 C          0.1504182714        3.3033308643       -1.0178516545
 C         -0.2575637840        2.2120223285       -1.7677081946
 C          0.3769847853        0.9922787057       -1.6261211084
 C          1.4256515656        0.8532219613       -0.7268451529
 C          1.8471789161        1.9587238922        0.0014870625
 C          1.2086765724        3.1811711522       -0.1376342778
 S          3.2226969294        1.8038639388        1.1094843538
 C          4.1534451377        0.6188446525        0.1769537582
 C          5.5393341244        0.6620317646        0.1997608718
 C          6.2707778369       -0.2534926811       -0.5339010904
 C          5.6189811837       -1.1904099462       -1.3196468387
 C          4.2365513784       -1.2310758536       -1.3515659556
 C          3.4900747239       -0.3514158977       -0.5751224822
 N          2.0837911500       -0.3916245971       -0.5683370203
 C          1.3444893249       -1.4809980857       -0.1896256801
 C          1.9251847764       -2.7485026532        0.0961607198
 C          1.1095404697       -3.7682580098        0.4863439653
 C         -0.2796173765       -3.5505674020        0.6530303773
 C         -1.1971518690       -4.5208387708        1.0926299597
 C         -2.5086793564       -4.1862841190        1.3061291283
 C         -2.9571569447       -2.8706886576        1.1120466851
 C         -2.0927578598       -1.9048635204        0.6681164935
 N         -2.4976162417       -0.5507419646        0.4869580844
 C         -2.9979109789       -0.2209959331       -0.7723949101
 C         -3.1661934736       -1.2119390212       -1.7417194316
 C         -3.6974900421       -0.9276192068       -2.9866961955
 C         -4.0636647655        0.3646258608       -3.3132007454
 C         -3.8856888396        1.3658228293       -2.3755599779
 C         -3.3690657694        1.0795220935       -1.1226582319
 S         -3.2194590331        2.4339303033        0.0048469343
 C         -2.0495587948        1.7659405124        1.1502948832
 C         -1.3624901944        2.6761201841        1.9352431656
 C         -0.5146640236        2.2441000604        2.9381291270
 C         -0.3977968328        0.8870446704        3.1713743919
 C         -1.0734833648       -0.0218405989        2.3785396125
 C         -1.8779008449        0.3897639910        1.3142334415
 C         -0.7394917353       -2.2354523916        0.3990459196
 N          0.0589685968       -1.2573830975       -0.0427534500
 H         -0.3553880821        4.2508103117       -1.1208586115
 H         -1.0758914619        2.3072921654       -2.4647239179
 H          0.0533749970        0.1364097063       -2.1967277618
 H          1.5445596917        4.0209246436        0.4506861405
 H          6.0300777592        1.4110457186        0.8014827377
 H          7.3489824433       -0.2255181105       -0.5039616164
 H          6.1872502146       -1.8895641845       -1.9139195891
 H          3.7235883273       -1.9456558802       -1.9779682817
 H          2.9918398991       -2.8881801382        0.0269402880
 H          1.5180105450       -4.7461156618        0.7018145718
 H         -0.8488106682       -5.5283617312        1.2701420969
 H         -3.2097467108       -4.9324725835        1.6483974882
 H         -3.9859727081       -2.6142399065        1.3165417172
 H         -2.8784939422       -2.2266223211       -1.5149859202
 H         -3.8205733012       -1.7268410180       -3.7022492009
 H         -4.4809419114        0.5948604208       -4.2810342079
 H         -4.1593467412        2.3864807561       -2.5976434913
 H         -1.5174718340        3.7294944987        1.7578084344
 H          0.0245470925        2.9581325741        3.5405142964
 H          0.2241824040        0.5237070704        3.9757329055
 H         -0.9755858481       -1.0736264455        2.5965529120
