68
 energy: -113.613800875856 gnorm: 0.000072319254 xtb: 6.7.1 (edcfbbe)
C            3.44663028695984        2.25522309795286       -2.01864849600604
C            3.13373518418606        0.91668755532752       -2.19500070449532
C            1.84774315589163        0.46833081184521       -1.96369443950487
C            0.85612770765230        1.36187953547288       -1.56274520931409
C           -0.50135565362258        0.88369858811865       -1.29967260472074
N           -0.66210266460513       -0.43349153619583       -1.17860798899855
C           -1.85584290056049       -0.92616402599371       -0.88474235941661
C           -1.93067065396667       -2.37200351275084       -0.61278979705523
C           -2.84901649870190       -3.19750581306294       -1.24690229804325
C           -2.84769632507629       -4.55989161403391       -0.99978706908326
C           -1.93215653845598       -5.10621749216731       -0.11545743658058
C           -1.02785557814495       -4.29030505605380        0.54477626799673
C           -1.02637376352035       -2.92491776639667        0.30460357061007
N           -0.15316439730216       -2.06227436220153        0.99928706761647
C           -0.58952119508888       -0.95939410920724        1.70455746086786
C           -1.85816924386804       -0.67887527259107        2.19093318058844
C           -2.03549881769689        0.50624721508032        2.87966202575953
C           -0.97784175608494        1.38986184042206        3.08931306511933
C            0.29171192273600        1.10589899088463        2.62519348184860
C            0.49190793102417       -0.07845952849146        1.92818678206213
C            1.62775092220685       -0.68213417771915        1.29746996288152
C            2.95380336919522       -0.33011984946553        1.09540273708860
O            3.58241386496638        0.80186872849419        1.51308109286269
C            4.86580464103234        0.71038808898325        1.05443458681024
C            5.86975590866131        1.64361212220765        1.23491157057107
C            7.10758223963436        1.35747355938237        0.68464182911542
C            7.33295317542028        0.17677959172964       -0.01830143892862
C            6.32837681529238       -0.75497826698964       -0.19597567675514
C            5.07669752219874       -0.48871694623844        0.34493868619833
C            3.81201750752606       -1.17487178249940        0.36956696937854
C            3.35034017477868       -2.37810844160143       -0.16867402589949
C            2.03289806598117       -2.74289874704543        0.00527741101267
C            1.19002048203718       -1.90013883998245        0.72788896443571
C           -2.94445277780298       -0.06321266807637       -0.78689164338071
S           -4.60904081136110       -0.40769635097040       -0.41938865311307
C           -4.99030538108151        1.30675674809521       -0.45281778470521
C           -6.23783320995210        1.86685054589985       -0.23009401055901
C           -6.35773804332685        3.24252953425856       -0.29216290127461
C           -5.25595485274482        4.04864713469897       -0.57172089140465
C           -4.01429291116574        3.49132323672391       -0.79498830071395
C           -3.87233595326876        2.10731398412270       -0.73540813259616
C           -2.68644797139140        1.31699593743913       -0.92562768845850
N           -1.47045893593434        1.78372021825879       -1.16592432874424
C            1.17511399879443        2.70770166244148       -1.39226487001925
C            2.46561468497352        3.14821106884060       -1.61593248317205
H            4.45536531532080        2.60028943043285       -2.19164501134016
H            3.89765483791852        0.22076952276870       -2.50793254586573
H            1.59221278942466       -0.57274608505690       -2.08567391312593
H           -3.54848080484590       -2.77161025621888       -1.95133434832521
H           -3.56051929345485       -5.19469130468755       -1.50316728222465
H           -1.92841523523881       -6.16924737472269        0.07131560529529
H           -0.32566519606064       -4.70235531052482        1.25390629235720
H           -2.67996900951594       -1.36291988720058        2.03221495813568
H           -3.01561426740019        0.75440561175028        3.26108951856785
H           -1.15924513717650        2.30901264686905        3.62655534227248
H            1.11514024744378        1.78477778935287        2.78873697325078
H            5.68592373434915        2.55546368327774        1.78087592303756
H            7.91438638363289        2.06469651509779        0.80545518997116
H            8.31291745775899       -0.01036464395116       -0.43177009975946
H            6.50637738361892       -1.66906806819934       -0.74147901575157
H            4.02341381224612       -3.00912951581569       -0.72780069165259
H            1.65052070717503       -3.65706444547722       -0.42183370040202
H           -7.08802358324132        1.23913129144363       -0.01379069314700
H           -7.32128710177049        3.69761337668418       -0.12009373336824
H           -5.37835991617659        5.12012681361324       -0.61366299939203
H           -3.14791673536314        4.09560092296636       -1.01367143620691
H            0.40097912935702        3.38911551127827       -1.07457211096011
H            2.71005487833810        4.19080602741422       -1.47426365327567
