68
 energy: -113.613836164287 gnorm: 0.000034304209 xtb: 6.7.1 (edcfbbe)
C            2.54280832176459        3.10216647898737       -1.65309218175791
C            2.46372317632514        1.76900653407510       -2.02360811229287
C            1.29362865406349        1.06163006068539       -1.82584164191013
C            0.18358872017126        1.68812487541461       -1.26195551805371
C           -1.04886393561670        0.93470673557384       -1.02881054329362
N           -0.96883587756080       -0.39234142228598       -1.11503888968838
C           -2.03289948823880       -1.13479553154263       -0.84840503888174
C           -1.84100759037769       -2.59413618905340       -0.81763676487272
C           -2.69177826057736       -3.45974005183912       -1.49289636846284
C           -2.45295411125271       -4.82319528489037       -1.48368534600683
C           -1.36399922271049       -5.33369562958697       -0.79627365222271
C           -0.52174718997629       -4.48508695020776       -0.09717394900721
C           -0.75672523541407       -3.11803401454685       -0.09960821303192
N            0.06392973263127       -2.24359760922103        0.63972016395559
C           -0.41756151349571       -1.33220341278437        1.55626634606605
C           -1.65395395112708       -1.29075231549509        2.18453325194291
C           -1.88862698155370       -0.26091061178691        3.07600156805172
C           -0.91636697503846        0.70033828980261        3.34816677371698
C            0.32443589642062        0.65067520090629        2.74366860963764
C            0.57971428109834       -0.37253021735359        1.84024324358107
C            1.70648770018182       -0.72238687574939        1.02790105339301
C            2.96149983161020       -0.18365046129153        0.78578772825799
O            3.50705929233749        0.93055441850193        1.34440266144151
C            4.74299112322305        1.06844879745547        0.77924887729213
C            5.65953104611180        2.06936942108728        1.04326536959709
C            6.86207691750564        2.02461996869208        0.35848381709659
C            7.13803891946870        1.01260228924451       -0.55732178745570
C            6.22100677695753        0.01296190016865       -0.81910909214318
C            5.00646363881028        0.03768645089256       -0.14487866757427
C            3.82804561472494       -0.78805736908987       -0.14225718449597
C            3.44568751497155       -1.93310795677239       -0.84462690510839
C            2.19937298666361       -2.48030321056405       -0.63027278574329
C            1.34835711717302       -1.87730041900911        0.29474819138450
C           -3.24425592868521       -0.51033095806466       -0.55980239329144
S           -4.79131313726758       -1.20461748813632       -0.17161218665619
C           -5.47058467086959        0.39706154123310        0.07082966265313
C           -6.78037637441665        0.68005192970542        0.42295854637309
C           -7.14661650273866        2.00484185314956        0.56974621012596
C           -6.22611911204906        3.03173495841727        0.36966952747814
C           -4.92236757468185        2.75031446845935        0.01856711874094
C           -4.53365723764699        1.42191130017771       -0.13486494951017
C           -3.24331626350334        0.89911060611051       -0.49437641311672
N           -2.14866261762819        1.61174336010364       -0.71308376641962
C            0.26717277507713        3.03046531882490       -0.89661833288614
C            1.44324638231039        3.72997204234305       -1.08842110515508
H            3.46206540487842        3.64946435220435       -1.80197623613227
H            3.32024210992297        1.27898121257197       -2.46236718680823
H            1.22198897807497        0.02072373630239       -2.10040237708638
H           -3.52784671690518       -3.05767081872338       -2.04625054007080
H           -3.11592822259832       -5.48551658911010       -2.01867635719210
H           -1.17476197988603       -6.39625194380066       -0.79391379062233
H            0.31635367245420       -4.87453011126064        0.46119544973466
H           -2.40917555047143       -2.03724806173220        1.98184965567335
H           -2.84755825929518       -0.19798508730819        3.57026332255863
H           -1.14133544149155        1.49258221228324        4.04685003417097
H            1.08293157664960        1.38952033904160        2.95439740261187
H            5.43709995213849        2.84983454236422        1.75376927193994
H            7.60100188508154        2.79061649736995        0.53988442237541
H            8.08825178215937        1.01202553488743       -1.07050482327564
H            6.43780164845330       -0.77044616008409       -1.52915017321909
H            4.12279322680259       -2.37652301404425       -1.55792348668291
H            1.87605040371551       -3.35172207449562       -1.17839941250873
H           -7.48964795208083       -0.11811169098393        0.57662212461230
H           -8.16264082506793        2.24522165787601        0.84374162284681
H           -6.53936952827876        4.05736764594097        0.49100822579099
H           -4.19350234362372        3.52903069342460       -0.14239703364887
H           -0.59630403172745        3.50335735212551       -0.45482540604675
H            1.50521354395665        4.76795395447678       -0.79572864077446
