  145
       -197.02067646
 C          0.0500784362        8.5248056625       -0.3000929816
 C          0.0554631025        7.0289499679       -0.2575654114
 C         -0.9343999709        6.3383506052        0.4374227303
 C         -0.9506211403        4.9611907076        0.4807104286
 C          0.0313117564        4.2220798178       -0.1859936994
 N          0.0257248755        2.8369177566       -0.1507134537
 C          1.2049843247        2.0939105011       -0.2743683252
 C          1.2022918420        0.9378953739       -1.0637900267
 C          2.3066292068        0.1217173121       -1.1040125880
 C          3.4412150177        0.4192849280       -0.3461735942
 C          4.5272453054       -0.6159830406       -0.1856576386
 C          4.8361796635       -1.3626386604       -1.4565225735
 C          4.9373925410       -0.6985698654       -2.6762689766
 C          5.3038237338       -1.4112287730       -3.8041951507
 C          5.5503546920       -2.7702690104       -3.6741852352
 N          5.4542978255       -3.4141996441       -2.5220610686
 C          5.1156844642       -2.7255122879       -1.4471558612
 C          4.0265045558       -1.4804229983        0.9556637566
 C          2.8759482511       -2.2042073181        1.0339620228
 C          2.5465670115       -2.8999998514        2.2125067041
 C          1.2630804936       -3.7012610929        2.2510703532
 C          1.3102551213       -4.7719441120        1.1496634709
 C          0.0732717137       -2.7606839593        1.9955569721
 C          1.0329426277       -4.4049613394        3.5902163741
 C          3.4371776937       -2.8141072438        3.3102601442
 C          4.5926169829       -2.0875074225        3.2626191548
 C          4.9305889689       -1.3862236670        2.0750958567
 C          6.0065664527       -0.5723402264        1.7297758809
 C          7.1743048405       -0.1712617762        2.4308656929
 C          8.0605831045        0.6691266255        1.8239966126
 C          7.8756818524        1.1620234246        0.5068820996
 C          8.9085524659        2.0972344561       -0.0830817277
 C          9.0047539567        3.3607125198        0.7887041558
 C         10.2742453938        1.3918733743       -0.1137906511
 C          8.5661516306        2.5303787359       -1.5115338116
 C          6.7260490584        0.7565194156       -0.1967367894
 C          5.8188534750       -0.0732364896        0.3904178702
 C          3.4579741058        1.5982907954        0.3980043542
 C          2.3636920980        2.4350549909        0.4264543529
 C         -1.1484072694        2.0983191734        0.0199812776
 C         -1.1158914525        0.9510235000        0.8178663978
 C         -2.2208997781        0.1376625825        0.9131006083
 C         -3.3894218812        0.4393860111        0.2167781636
 C         -4.5027499923       -0.5783284760        0.1646084495
 C         -4.7128090896       -1.2739032005        1.4861292522
 C         -4.6950742537       -0.5594271213        2.6816906677
 C         -4.9461598438       -1.2257087718        3.8695965912
 C         -5.2026498481       -2.5868038342        3.8202013532
 N         -5.2225313749       -3.2777268349        2.6913917466
 C         -4.9907138554       -2.6335617321        1.5596427114
 C         -4.1464044384       -1.5201762422       -0.9722297529
 C         -3.0098341781       -2.2768728699       -1.1184733699
 C         -2.8252529346       -3.0435758152       -2.2706170613
 C         -1.5514398960       -3.8624559043       -2.4000373019
 C         -1.4600664185       -4.6187461437       -3.7270087808
 C         -1.5095360640       -4.8856054957       -1.2573232230
 C         -0.3372201624       -2.9274868054       -2.2975208042
 C         -3.8197073174       -3.0247206552       -3.2446486370
 C         -4.9697691838       -2.2633759900       -3.1046325366
 C         -5.1362196611       -1.4956424747       -1.9645903910
 C         -6.1871988799       -0.5885296708       -1.5467931347
 C         -7.3806772581       -0.2179186268       -2.1412272808
 C         -8.1974287233        0.7014414900       -1.5015541669
 C         -7.8548036955        1.2642698410       -0.2757034828
 C         -8.7311560815        2.2774543986        0.4434699149
 C         -9.1224268929        1.7122926252        1.8165309597
 C         -7.9399829660        3.5812485878        0.6248078692
 C        -10.0162387814        2.6029331580       -0.3218556227
 C         -6.6498323360        0.8793447683        0.3178537324
 C         -5.8320917014       -0.0273504664       -0.3105484184
 C         -3.4362136242        1.6073157691       -0.5363759288
 C         -2.3349150749        2.4348358225       -0.6314728027
 C          1.0256639855        4.9099670222       -0.8859904607
 C          1.0325734122        6.2891567112       -0.9140665762
 H         -0.7693276553        8.8798196949       -0.9256190765
 H         -0.0932561570        8.9363204536        0.6975653173
 H          0.9824904267        8.9066684030       -0.7077224873
 H         -1.6992420275        6.8932490733        0.9613646821
 H         -1.7136751354        4.4436881027        1.0427183289
 H          0.3182481779        0.6928006878       -1.6333535826
 H          2.2940536184       -0.7636786145       -1.7210322772
 H          4.7192203519        0.3584127006       -2.7366541561
 H          5.3924065427       -0.9257352485       -4.7643049996
 H          5.8346158915       -3.3746331116       -4.5252392959
 H          5.0566754419       -3.2902409549       -0.5259582745
 H          2.2163590833       -2.2490981569        0.1818814993
 H          0.4114655320       -5.3826838433        1.1850991319
 H          1.3819188040       -4.3173073138        0.1677628015
 H          2.1734922130       -5.4179961967        1.2933535271
 H          0.1707795866       -2.2613327910        1.0370727219
 H         -0.8567149937       -3.3261661981        2.0075038067
 H          0.0256743745       -2.0014410513        2.7738019508
 H          0.9681350547       -3.6867172708        4.4040417835
 H          1.8311096575       -5.1123179976        3.8007239107
 H          0.0953117632       -4.9561918488        3.5530671289
 H          3.1982533848       -3.3351830236        4.2230071538
 H          5.2441448032       -2.0299512409        4.1216451062
 H          7.3493357997       -0.5342988962        3.4325102055
 H          8.9421714428        0.9692664359        2.3705039018
 H          9.2957307351        3.1181713807        1.8068940136
 H          8.0425955784        3.8682585110        0.8207252376
 H          9.7432768548        4.0445315010        0.3758912007
 H         10.2128663571        0.4835432512       -0.7092526272
 H         11.0232657632        2.0460417188       -0.5547998449
 H         10.6032763477        1.1221149021        0.8853591111
 H          8.5119203017        1.6717697453       -2.1770548900
 H          9.3411169402        3.1968795722       -1.8846538398
 H          7.6198717666        3.0660909377       -1.5413319742
 H          6.5514595451        1.1019107639       -1.2017131287
 H          4.3350186831        1.8403556312        0.9785790503
 H          2.3770669218        3.3349844418        1.0236549904
 H         -0.2087391099        0.7021181268        1.3469715853
 H         -2.1771238809       -0.7458412839        1.5303469473
 H         -4.4740877189        0.4983714094        2.6795221537
 H         -4.9399479462       -0.7003968559        4.8125926230
 H         -5.3993394453       -3.1554385539        4.7192845969
 H         -5.0225069431       -3.2390609429        0.6638056341
 H         -2.2647005632       -2.2708987150       -0.3398687908
 H         -1.4831310138       -3.9327778583       -4.5703044191
 H         -2.2731685487       -5.3334389906       -3.8252736154
 H         -0.5223081595       -5.1692127349       -3.7655966871
 H         -1.5036435458       -4.3885886546       -0.2937601777
 H         -0.6153186034       -5.4990273984       -1.3373855944
 H         -2.3805183139       -5.5357838617       -1.3039418186
 H         -0.3610773741       -2.1928982980       -3.1001241158
 H         -0.3288762123       -2.3978496597       -1.3507497090
 H          0.5829535284       -3.5020229744       -2.3836940536
 H         -3.7078595622       -3.6099911537       -4.1424514754
 H         -5.7195429599       -2.2677888600       -3.8820544706
 H         -7.6776738137       -0.6371040880       -3.0913073827
 H         -9.1218454041        0.9750303556       -1.9829129993
 H         -9.7631446310        2.4160189944        2.3435634890
 H         -9.6629583430        0.7757736151        1.6962478296
 H         -8.2474668535        1.5212622517        2.4316794368
 H         -7.0426753104        3.4217587962        1.2164715170
 H         -8.5529803824        4.3249482417        1.1293890034
 H         -7.6432676168        3.9783539951       -0.3439899852
 H        -10.6279129785        1.7136578876       -0.4539892867
 H        -10.5984111384        3.3303564418        0.2402849577
 H         -9.7937482638        3.0318651928       -1.2961708559
 H         -6.3536752565        1.2920546706        1.2690579864
 H         -4.3375640389        1.8559371745       -1.0750663718
 H         -2.3733643737        3.3239696402       -1.2431401935
 H          1.7827830832        4.3515176092       -1.4158874963
 H          1.8089889217        6.8004603966       -1.4645721541
