78
 energy: -129.991819333207 gnorm: 0.000061501990 xtb: 6.7.1 (edcfbbe)
C            0.97285001912321       -6.44881599015503       -0.80466652117991
N           -0.04756219059352       -5.44936342467592       -0.66483478513650
C           -1.40116527987017       -5.61758467076375       -0.66086642179090
N           -2.07581330864007       -4.51886823676409       -0.51324798101502
C           -1.13346441895513       -3.52791135608596       -0.40752545254206
C           -1.16285888006226       -2.13489021268611       -0.24421811587728
C           -2.38367016804797       -1.34213909829017       -0.15678539906738
C           -3.63808091356348       -1.95415194917189       -0.16530647633213
C           -4.78375024588675       -1.18978131134006       -0.08818745148099
C           -4.69943403501926        0.19813982445003       -0.00299437218176
N           -5.87254183038662        0.97782188775678        0.07068528013260
C           -6.74404138698074        0.84945666844164        1.15424884337838
C           -6.47563910901017        0.00838036708442        2.22697600143290
C           -7.36049555155143       -0.09138686884386        3.28993077728772
C           -8.52126391153999        0.65456958537083        3.30479906415432
C           -8.78865033894854        1.52266555292860        2.25629069854902
C           -7.90896246860225        1.62754972713698        1.19534036880159
O           -8.22625894131955        2.53196915713214        0.21226635812815
C           -7.35686735859568        2.64955798415585       -0.84384182171284
C           -7.69329328790203        3.55451284742895       -1.83298437508366
C           -6.88210888572784        3.70754825977032       -2.94788338284794
C           -5.74488360310435        2.93590302072991       -3.07145708658355
C           -5.40177319961736        2.02788250704933       -2.08117660597771
C           -6.18640084284373        1.88517155823564       -0.94353887041295
C           -3.44864164605448        0.81277302923884        0.00636595765398
C           -2.30439063152259        0.04913009127464       -0.06922998358222
N            0.00101673652232       -1.49548291308112       -0.17177012387432
C            1.15800278485477       -2.14767493997500       -0.26283127490857
C            2.37997814199463       -1.34843812131073       -0.16041013727116
C            2.31158482864028        0.00434917742563        0.16967409818331
C            3.46185864119916        0.75752706957096        0.27487541474888
C            4.70459101655083        0.17015506963188        0.05066581325787
N            5.88366624815091        0.93836634563845        0.16227814464467
C            6.26352727026316        1.47989447876590        1.39178886382865
C            5.53650037939273        1.26149731601122        2.55516913055393
C            5.94523125722614        1.81045717467809        3.76133785798224
C            7.09076197535136        2.57671595742184        3.82726842951060
C            7.84346838665805        2.78053184830878        2.67971496628656
C            7.44163549486257        2.23441638610264        1.47540485538819
O            8.25435240289957        2.45471795944487        0.39051301498853
C            7.86939105453956        1.90982439046418       -0.80970982652064
C            8.68990001116095        2.14546368652646       -1.89656707468049
C            8.35247344344830        1.65269373660498       -3.14892310535904
C            7.18213585669476        0.93888225367271       -3.30570926077577
C            6.35611988444714        0.69781554805370       -2.21813810954611
C            6.69439937672335        1.15931236019501       -0.95230131536962
C            4.77844439728652       -1.18033439515669       -0.28177063939105
C            3.62637538157183       -1.93113765259435       -0.38526033500041
N            1.30306653318398       -3.46282194516692       -0.43839313051468
C            0.15377768198008       -4.11128267165341       -0.50124300535903
H            0.88347603834257       -6.95595012626764       -1.76732668823411
H            0.89767919757806       -7.18765661240855       -0.00458017637007
H            1.93704031093092       -5.94683525598628       -0.74635857292940
H           -1.85303827085205       -6.58474169364133       -0.77155096590213
H           -3.70093976794351       -3.02817038477057       -0.24207331028989
H           -5.75583586326863       -1.66065633888859       -0.10190212804738
H           -5.56388851850506       -0.56790782888434        2.23601837941617
H           -7.12822156727762       -0.75667652107722        4.10732812107439
H           -9.21492709561641        0.57754185742092        4.12712697020762
H           -9.67642188506347        2.13463707913292        2.24556434496639
H           -8.59930396199527        4.12702956582081       -1.71412675968363
H           -7.15130096772314        4.41819986722937       -3.71327953761985
H           -5.11364931259668        3.02872223018852       -3.94188319242100
H           -4.51940404456074        1.41876838943057       -2.19897627733297
H           -3.38741900484693        1.88892226970279        0.07870544053190
H           -1.32998359639167        0.51061590662006       -0.05993826961421
H            1.34391197447100        0.44803548075744        0.33920350434339
H            3.41024019901980        1.80647848592613        0.52787415410483
H            4.64768516770517        0.65125531144071        2.52014869363536
H            5.35832573572432        1.62786665124054        4.64843314571329
H            7.41111774390309        3.00887504346073        4.76211484376664
H            8.75328091029243        3.35898240295627        2.69971689798283
H            9.58771973994872        2.72258739162146       -1.74291495888023
H            9.00026375088884        1.83982710532813       -3.99075955471617
H            6.89640828212193        0.56492550896991       -4.27694316194628
H            5.43571680136855        0.15242289549373       -2.35642930819005
H            5.74520892077874       -1.63164703915006       -0.45138532006491
H            3.67316131316913       -2.97903971063573       -0.63562981101839
