  78
       -129.99187745
 C          0.9568825141       -6.5460673785       -0.0836292583
 N         -0.0549725752       -5.5282247062       -0.0868670814
 C         -1.4094664519       -5.6818563710       -0.1363129568
 N         -2.0744204681       -4.5673845612       -0.1285954170
 C         -1.1238923125       -3.5802899647       -0.0701898756
 C         -1.1412918094       -2.1780155688       -0.0301958154
 C         -2.3552702385       -1.3706989899       -0.0499415192
 C         -3.6062840728       -1.9634532680       -0.2287496316
 C         -4.7451673531       -1.1861321667       -0.2571795163
 C         -4.6590094590        0.1958527346       -0.1012706644
 N         -5.8254999660        0.9871588342       -0.1298944623
 C         -6.8335453284        0.8005634777        0.8192248137
 C         -6.7090789711       -0.1033287941        1.8671198333
 C         -7.7283068427       -0.2618458314        2.7937979576
 C         -8.8829752588        0.4875411141        2.6973363138
 C         -9.0088217643        1.4188458247        1.6770959679
 C         -7.9948194153        1.5822520285        0.7519226782
 O         -8.1790737358        2.5474056993       -0.2067884560
 C         -7.1776292822        2.7217594371       -1.1295101187
 C         -7.3817275121        3.6874384913       -2.0973495324
 C         -6.4315245079        3.9015543432       -3.0848930166
 C         -5.2881346345        3.1292425598       -3.1054742903
 C         -5.0778441520        2.1603174554       -2.1360829819
 C         -6.0040050639        1.9557567752       -1.1207009136
 C         -3.4120437239        0.7904357660        0.0846811751
 C         -2.2738519933        0.0143535632        0.1068093305
 N          0.0271500326       -1.5453371704        0.0253105202
 C          1.1783680152       -2.2143396252        0.0391534464
 C          2.4073431597       -1.4208751336        0.0842230842
 C          2.3500761366       -0.0283333013        0.0440183791
 C          3.5074088654        0.7205523180        0.0720868580
 C          4.7471003903        0.0894540395        0.1441143981
 N          5.9328341174        0.8542129830        0.1686405355
 C          6.1962025296        1.7215173118        1.2308783375
 C          5.3494715141        1.8307628305        2.3267345792
 C          5.6433708108        2.6989992711        3.3673935853
 C          6.7916378758        3.4633778341        3.3359393317
 C          7.6626570842        3.3438603495        2.2627178089
 C          7.3754967799        2.4786460052        1.2238454030
 O          8.3005505262        2.3923388424        0.2126437021
 C          8.0312951525        1.5274926123       -0.8192903741
 C          8.9668793220        1.4537084260       -1.8339315205
 C          8.7522841699        0.6254895459       -2.9260611166
 C          7.5885588689       -0.1120276948       -3.0008825379
 C          6.6472166432       -0.0429292079       -1.9848793116
 C          6.8607699681        0.7583315164       -0.8702525739
 C          4.8097569929       -1.3013091155        0.1896152148
 C          3.6506308615       -2.0475602231        0.1582080190
 N          1.3119511839       -3.5421529750        0.0086354705
 C          0.1576376712       -4.1825508609       -0.0432061912
 H          0.8946649228       -7.1510531996       -0.9902075868
 H          0.8449094979       -7.1955943873        0.7865770136
 H          1.9247600455       -6.0494176804       -0.0441696225
 H         -1.8695810651       -6.6505774268       -0.1791759475
 H         -3.6709550566       -3.0331272055       -0.3512554664
 H         -5.7127255144       -1.6419457729       -0.4085065865
 H         -5.8053076426       -0.6839791617        1.9648602141
 H         -7.6059269312       -0.9764878686        3.5931289576
 H         -9.6811819528        0.3641016006        3.4120742267
 H         -9.8884964836        2.0354706505        1.5840623152
 H         -8.2959254373        4.2583603412       -2.0631368019
 H         -6.5977823401        4.6597092300       -3.8338538160
 H         -4.5480459762        3.2697188427       -3.8782179447
 H         -4.1880993709        1.5519483738       -2.1757521845
 H         -3.3495444194        1.8606987542        0.2178394350
 H         -1.3036891610        0.4604723838        0.2562662997
 H          1.3855600139        0.4484838381       -0.0211805421
 H          3.4642497162        1.7992029637        0.0318551984
 H          4.4568668783        1.2265662559        2.3714079322
 H          4.9650017380        2.7662742456        4.2040608939
 H          7.0231500726        4.1427514927        4.1409794138
 H          8.5776556258        3.9125343204        2.2153293984
 H          9.8562947246        2.0580214246       -1.7530048449
 H          9.4893795006        0.5725653383       -3.7116929930
 H          7.3977717017       -0.7463610206       -3.8529143550
 H          5.7338047338       -0.6113507233       -2.0640181062
 H          5.7731196254       -1.7859970761        0.2539919799
 H          3.6885987331       -3.1246276981        0.1965097503
