  78
       -129.92309719
 C          0.9627250548       -6.5130057834       -0.0671329727
 N         -0.0515385253       -5.4985441670       -0.0463114029
 C         -1.4132723471       -5.6723816703       -0.0591608876
 N         -2.0630573268       -4.5361709962       -0.0435432621
 C         -1.1260798022       -3.5657046912       -0.0268144505
 C         -1.1507265963       -2.1307979553       -0.0040478009
 C         -2.3508137297       -1.3543654432       -0.0257242514
 C         -3.6186334489       -1.9652855001       -0.0459103817
 C         -4.7626461584       -1.2052986820       -0.0657325770
 C         -4.6819615959        0.1882321349       -0.0692894780
 N         -5.8674150104        0.9687935426       -0.0941024891
 C         -6.7043805610        1.0111821638        1.0102095411
 C         -6.4019695811        0.3402669611        2.1925097824
 C         -7.2587387828        0.4045043445        3.2771103807
 C         -8.4273915328        1.1416288654        3.2059886342
 C         -8.7358178113        1.8303718327        2.0433844708
 C         -7.8837594474        1.7726977510        0.9548641129
 O         -8.2357820986        2.4920613361       -0.1562530842
 C         -7.3931946297        2.4463200422       -1.2348544978
 C         -7.7544775870        3.1767755458       -2.3528796926
 C         -6.9549188924        3.1582435210       -3.4849688526
 C         -5.8005004479        2.3959994152       -3.4969171421
 C         -5.4318339117        1.6625943069       -2.3829175025
 C         -6.2117982008        1.6856909489       -1.2295064735
 C         -3.4312650231        0.8101350165       -0.0522084892
 C         -2.2870544684        0.0539583191       -0.0324776041
 N          0.0323256277       -1.5177759245        0.0166941414
 C          1.1889096293       -2.1445859603        0.0127047408
 C          2.4050548897       -1.3644993751        0.0362697336
 C          2.3626068749        0.0350970498        0.0836573949
 C          3.5236096787        0.7720376615        0.1041898289
 C          4.7601973601        0.1268206938        0.0799700328
 N          5.9596290905        0.8849245403        0.1055348936
 C          6.3421516144        1.5556248450        1.2593322471
 C          5.5882850044        1.5056618682        2.4279403203
 C          5.9992382795        2.1862315922        3.5614221356
 C          7.1700065473        2.9216607244        3.5517067032
 C          7.9426736257        2.9674921390        2.4014613503
 C          7.5393076064        2.2894860024        1.2653254861
 O          8.3588031182        2.3597002074        0.1691781337
 C          7.9728805429        1.6802118394       -0.9564652288
 C          8.8081384015        1.7518518997       -2.0566013749
 C          8.4674455177        1.1036534495       -3.2338857262
 C          7.2828487640        0.3943987160       -3.3070842376
 C          6.4422556365        0.3166247888       -2.2096769069
 C          6.7780966927        0.9445611624       -1.0140632698
 C          4.8167346132       -1.2648555496        0.0337698964
 C          3.6538695399       -1.9996680508        0.0115055303
 N          1.3064427827       -3.4994237444       -0.0063062050
 C          0.1555629044       -4.1556384801       -0.0329428009
 H          0.9327708381       -7.0699192384       -1.0068675445
 H          0.8218098894       -7.2094284114        0.7619400492
 H          1.9301358730       -6.0237486326        0.0303578837
 H         -1.8723809163       -6.6394251293       -0.0736768488
 H         -3.6767875634       -3.0426598529       -0.0499387704
 H         -5.7350609205       -1.6768367824       -0.0842492802
 H         -5.4879047434       -0.2284773120        2.2545580193
 H         -7.0053040960       -0.1254368365        4.1821693095
 H         -9.0970443355        1.1897635018        4.0499569944
 H         -9.6324919364        2.4235857254        1.9609587446
 H         -8.6666593712        3.7506520046       -2.3170376547
 H         -7.2424204317        3.7310403939       -4.3523368495
 H         -5.1804347295        2.3628492671       -4.3794350528
 H         -4.5370592806        1.0610906425       -2.4001495608
 H         -3.3796346258        1.8900419858       -0.0472755209
 H         -1.3148887863        0.5207529371       -0.0152017496
 H          1.3997073558        0.5199176041        0.0957322332
 H          3.4922732424        1.8517236712        0.1347381141
 H          4.6796867928        0.9249572232        2.4445639281
 H          5.3966795361        2.1348547812        4.4550159989
 H          7.4902190628        3.4547977911        4.4329429741
 H          8.8666601014        3.5221327809        2.3656760738
 H          9.7183494093        2.3237612024       -1.9720859955
 H          9.1246764424        1.1633617587       -4.0869081958
 H          7.0023547093       -0.1025650418       -4.2228114173
 H          5.5144172842       -0.2290509304       -2.2754799059
 H          5.7801476762       -1.7545654742        0.0181851919
 H          3.6807820435       -3.0775852415       -0.0217477503
