78
 energy: -129.991934501213 gnorm: 0.000044096517 xtb: 6.7.1 (edcfbbe)
C            0.96672556802026       -6.55020071309479       -0.08729909001884
N           -0.04777655641249       -5.53510753237684       -0.09469925399500
C           -1.40206495624606       -5.69255042345336       -0.13796979749564
N           -2.06992807191694       -4.57984296377687       -0.13238488341109
C           -1.12181081814373       -3.59002166771938       -0.08193361427016
C           -1.14269721405869       -2.18777835379165       -0.04672569744955
C           -2.35803980888946       -1.38250316661793       -0.06234344682405
C           -3.61047016592519       -1.97713665804546       -0.22343659415523
C           -4.75000876968787       -1.20031840568886       -0.24732096474846
C           -4.66256625800972        0.18294754294587       -0.10470977003036
N           -5.82807907255351        0.97571759291541       -0.13190088351996
C           -6.82618800029638        0.80765880737975        0.83092408956178
C           -6.69992962698913       -0.09075862095190        1.88324781898952
C           -7.70956595329270       -0.23052751448338        2.82335320959982
C           -8.85617719932737        0.53221244929113        2.73584255126240
C           -8.98328267619352        1.45802222975527        1.71076146809531
C           -7.97879022475333        1.60282630199754        0.77228250514412
O           -8.16337917902141        2.56384899715353       -0.19054742444206
C           -7.17066718704961        2.72137429278815       -1.12553344074681
C           -7.37358268726893        3.68479628238052       -2.09581091120612
C           -6.43241114589952        3.88144596431904       -3.09561523521533
C           -5.29984801646099        3.09376639581179       -3.12610207293720
C           -5.09059285957356        2.12732503201424       -2.15403247837636
C           -6.00671700888269        1.94074919305682       -1.12618427942191
C           -3.41395672677091        0.77930550335858        0.06416641656251
C           -2.27553469652469        0.00384829362397        0.08197324049943
N            0.02438851828715       -1.55200653638469        0.00248154076554
C            1.17729632796353       -2.21777757771011        0.01599017030149
C            2.40382106350705       -1.42063328223700        0.06020538712761
C            2.34259607058719       -0.02836603308756        0.01789415296503
C            3.49745459118571        0.72420437724985        0.05204205277690
C            4.73848406080509        0.09691153103029        0.13262529490470
N            5.92250628174614        0.86395764787186        0.16589924943175
C            6.18001291249484        1.72892205159728        1.23146797919154
C            5.31987586973831        1.84773897582843        2.31585606675968
C            5.60853228100910        2.71391639709463        3.35969493583975
C            6.76470560911009        3.46678430897881        3.34306823464507
C            7.64873479524225        3.33750391312035        2.28168803564850
C            7.36685103148645        2.47430307899098        1.23975543944373
O            8.30512483876174        2.37769734248155        0.24167417651222
C            8.03757020497028        1.52121614158315       -0.79757346247334
C            8.98257558805845        1.44250693308104       -1.80307208305000
C            8.77003208336644        0.62235977790531       -2.90170582950233
C            7.59899673321903       -0.10171470618862       -2.99248498443507
C            6.64839245638412       -0.02791623296605       -1.98551595648760
C            6.85977247731344        0.76456704934161       -0.86421135295258
C            4.80511319395937       -1.29376091202094        0.17776273286625
C            3.64862609149795       -2.04358023800288        0.14006640728947
N            1.31425191225406       -3.54530705926290       -0.01094322818626
C            0.16142952199305       -4.18876868107331       -0.05728890316390
H            0.89293216258189       -7.17182875408231       -0.98156914502359
H            0.86910852438595       -7.18409396887170        0.79625538208671
H            1.93365938283250       -6.05035768536840       -0.07038161590512
H           -1.85949184519174       -6.66274957819008       -0.17415729350744
H           -3.67580885123490       -3.04780367439538       -0.33638793919937
H           -5.71886373717639       -1.65769133559845       -0.38503610900643
H           -5.80192083969337       -0.68119847059276        1.97436448208769
H           -7.58590391364495       -0.94071654189114        3.62648146082697
H           -9.64667816473382        0.42386200834067        3.46157602500133
H           -9.85624082677917        2.08512690687603        1.62443159703056
H           -8.27967259063456        4.26789241737490       -2.05401104034134
H           -6.59767846565116        4.63794164433203       -3.84641717657217
H           -4.56770679278088        3.21962808172295       -3.90893395184813
H           -4.20952280749624        1.50698434328298       -2.20121492178796
H           -3.35054290808374        1.85077797608339        0.18663653527526
H           -1.30401171129168        0.45122731832121        0.21804590976089
H            1.37704178302166        0.44555858224832       -0.05284167235748
H            3.45115752179359        1.80265605717329        0.00992994211416
H            4.42073096778660        1.25280761941553        2.34924962565018
H            4.91948745306154        2.78917743719169        4.18689669195910
H            6.99207076096025        4.14487540580644        4.15041649033548
H            8.57013341653352        3.89655041587351        2.24627948337984
H            9.87776568457108        2.03639531584562       -1.70989882811509
H            9.51453451060501        0.56534661748785       -3.68003826463678
H            7.40989890164131       -0.72938106800013       -3.84984538801027
H            5.72981698005653       -0.58609412958083       -2.07648519709661
H            5.76968236451365       -1.77539746157341        0.24638327383530
H            3.68960064041258       -3.12049738094355        0.17876406172259
