  49
  -80.4897065549000       0.542591729709528      !
 C          4.9626408007       -0.9254491072        2.1996445527
 C          4.8897884532       -0.8573585300        0.6715134928
 C          5.9898869628        0.0600416169        0.1430036459
 C          5.0331178253       -2.2501041454        0.0513968180
 N          3.5791248541       -0.3010571660        0.2861489527
 C          2.4015070291       -0.8933266423        0.6220131527
 O          2.2679665630       -1.9158888024        1.2588234448
 C          1.2607230557       -0.1008505210        0.0867810634
 C         -0.0722200709       -0.4180752532        0.2728579725
 C         -1.0439315971        0.4157051527       -0.2877826208
 N         -2.3927720008        0.1218407506       -0.1256765907
 C         -3.3856342891        1.0221779684        0.2319951394
 C         -3.2840530966        2.3607584092        0.5794638937
 C         -4.4429075677        3.0245629970        0.9383665947
 C         -5.6746889663        2.3762648248        0.9635933791
 C         -5.7763285226        1.0354303756        0.6494893810
 C         -4.6256185650        0.3488453725        0.2866358179
 C         -4.3667065074       -1.0213545299       -0.0634791976
 C         -5.1826262771       -2.1358460007       -0.2041095136
 C         -4.6078410513       -3.3305026807       -0.5899796888
 C         -3.2429275791       -3.4154925316       -0.8510339129
 C         -2.4113583242       -2.3187604488       -0.7174842862
 C         -2.9789373978       -1.1238061003       -0.3021865997
 C         -0.6565591115        1.5465492895       -1.0161979844
 C          0.6820772507        1.8620691894       -1.1863202730
 C          1.6246060016        1.0252676087       -0.6300262535
 S          3.3982302407        1.1209896994       -0.6465707981
 O          3.9249295442        0.9127187996       -1.9591748447
 O          3.8672697504        2.2527293240        0.0898474820
 H          4.1938134879       -1.5882825179        2.5866174360
 H          4.8210073960        0.0666833842        2.6227586089
 H          5.9360234878       -1.3019192230        2.5021421911
 H          6.9584018159       -0.3454523536        0.4258852449
 H          5.8913066537        1.0585346874        0.5596426837
 H          5.9419326384        0.1332224254       -0.9399042117
 H          6.0054453647       -2.6646555277        0.3032493164
 H          4.9466775827       -2.1849264003       -1.0310855978
 H          4.2601184621       -2.9132797764        0.4295538430
 H         -0.3422018322       -1.2812844115        0.8607922798
 H         -2.3326274371        2.8705418702        0.5889216981
 H         -4.3888752397        4.0680631054        1.2101848918
 H         -6.5570944673        2.9298894609        1.2466982451
 H         -6.7265207306        0.5254315830        0.6905655466
 H         -6.2436195992       -2.0626874412       -0.0205740892
 H         -5.2229304944       -4.2104357987       -0.7026655874
 H         -2.8227709726       -4.3582968068       -1.1675634476
 H         -1.3589912852       -2.3961068001       -0.9434053666
 H         -1.4165205441        2.1660537458       -1.4667126442
 H          0.9841725167        2.7310889783       -1.7483299646
  49
  -80.4895451661000       0.457408270290472      !
 C          4.9301793080        1.4148518229        2.0247996790
 C          4.8432008108        0.0877117496        1.2667899720
 C          5.9772378613       -0.0102270233        0.2488519331
 C          4.9164690102       -1.1024194183        2.2275324564
 N          3.5568253774        0.0465623826        0.5469620843
 C          2.3537247332        0.0336526289        1.1827299340
 O          2.1729368163       -0.0021350364        2.3804932481
 C          1.2500501686        0.0758463934        0.1844764200
 C         -0.0938042660       -0.0264675626        0.4934717605
 C         -1.0265028291        0.0332769293       -0.5458780486
 N         -2.3846344012       -0.0775536534       -0.2724037011
 C         -3.0677331212        0.5800391253        0.7412253381
 C         -2.6116929583        1.5244473915        1.6482487846
 C         -3.5253229196        2.0560479290        2.5397429648
 C         -4.8631617323        1.6708635581        2.5275002800
 C         -5.3284033580        0.7532307946        1.6066093732
 C         -4.4286172427        0.2059814955        0.7019577381
 C         -4.5683394523       -0.7317372945       -0.3788591776
 C         -5.6443448631       -1.4539985345       -0.8767366584
 C         -5.4290707886       -2.3177188220       -1.9323654826
 C         -4.1573270297       -2.4794918389       -2.4751676545
 C         -3.0715083566       -1.7702675814       -1.9955809799
 C         -3.2883804725       -0.8772374576       -0.9570323898
 C         -0.5903451016        0.2012157954       -1.8654802804
 C          0.7595491461        0.2908060223       -2.1654137658
 C          1.6630952218        0.2268974703       -1.1273265615
 S          3.4382857973        0.2776586045       -1.1444275494
 O          3.9800392921       -0.8481043472       -1.8376814299
 O          3.9320362459        1.5753128533       -1.4879924944
 H          4.1261293922        1.4844889170        2.7527726823
 H          4.8500841274        2.2444611061        1.3255687823
 H          5.8815275453        1.4812973242        2.5454138704
 H          6.9298272913        0.0064142823        0.7729852924
 H          5.9451535639        0.8244568344       -0.4457991746
 H          5.9033506889       -0.9331249489       -0.3200206394
 H          4.8019947575       -2.0335368472        1.6773171040
 H          4.1333202786       -1.0376616896        2.9766714906
 H          5.8818678638       -1.1050359815        2.7258788725
 H         -0.3999243681       -0.1769144028        1.5168802499
 H         -1.5823419798        1.8480759505        1.6570287417
 H         -3.1925513981        2.7890638915        3.2590873724
 H         -5.5450436998        2.1061144447        3.2423944006
 H         -6.3690537526        0.4680931583        1.5827393937
 H         -6.6248625736       -1.3448160410       -0.4392989274
 H         -6.2521419387       -2.8871903583       -2.3368289642
 H         -4.0131475164       -3.1778498284       -3.2859152756
 H         -2.0868125114       -1.9257585032       -2.4093579193
 H         -1.3229615663        0.2802000194       -2.6537135374
 H          1.0993533577        0.4185182789       -3.1805146966
