  108
       -157.68600351
 C         -2.0146560158        4.6017180241        3.4918241534
 C         -0.7398160999        4.4645584127        2.6582586034
 C          0.4862067145        4.9709310412        3.4198133970
 C         -0.8812609015        5.2037360279        1.3496219437
 C         -1.1102804840        6.5726795687        1.3353451547
 C         -1.2363164006        7.2560362562        0.1412723312
 C         -1.1342263890        6.5809283940       -1.0596543333
 C         -0.9037842874        5.2122675184       -1.0883250898
 C         -0.7920134075        4.4817261038       -2.4044385770
 C          0.3906208326        5.0186603852       -3.2121011497
 C         -2.1019535783        4.5929003996       -3.1862249377
 C         -0.7807126827        4.5443374326        0.1270220042
 N         -0.5416645213        3.1262956932        0.1239523937
 C         -1.6624782924        2.3127981882        0.1506536569
 O         -2.7824188646        2.7869739381        0.1433709399
 C         -1.4028332782        0.8636308033        0.2019558758
 C         -2.4628204168       -0.0074268903        0.2777223586
 C         -2.2624937063       -1.4049126638        0.3507737621
 N         -3.3403066649       -2.2541276028        0.4320062536
 C         -4.6796050754       -1.8175267985        0.3807060968
 C         -5.1666700321       -0.8860298039        1.2890454028
 C         -6.4961675165       -0.5106864497        1.2444392168
 C         -7.3421364288       -1.0868388498        0.3138775321
 C         -6.8655386609       -2.0486170023       -0.5613846301
 C         -5.5329366098       -2.4278478900       -0.5431289756
 C         -4.9215757593       -3.4720120487       -1.4603438272
 C         -5.9759707523       -4.2925555835       -2.2006747395
 C         -4.0427650912       -2.7589598780       -2.5078518637
 C         -4.0324294917       -4.3269556782       -0.5753884663
 C         -3.9728828278       -5.7108034435       -0.6218666956
 C         -3.1357569342       -6.4151634633        0.2276422237
 C         -2.3658339381       -5.7441980478        1.1609609973
 C         -2.4206366062       -4.3646353489        1.2324458223
 C         -3.2270541224       -3.6561851900        0.3501970867
 C         -0.9615138625       -1.8822474689        0.2526896871
 C          0.1372997500       -1.0138617521        0.1737364481
 C          1.4635625645       -1.4861248165        0.0915674490
 C          2.5233480712       -0.6102110753        0.0386389641
 N          3.8510946828       -1.0933322714       -0.0232087972
 C          4.3994308899       -1.7231332314        1.0837539131
 C          3.6483173142       -1.8531768821        2.2562365008
 C          4.1649741811       -2.4862479754        3.3670035201
 C          5.4494281266       -2.9977890806        3.3341744509
 C          6.2057656026       -2.8429096271        2.1875661903
 C          5.7116119165       -2.2069459285        1.0569597726
 C          6.6125390238       -2.0351790537       -0.1499001603
 C          7.8448205203       -1.2164785222        0.2744040253
 C          7.0426462390       -3.4250771353       -0.6522112575
 C          5.9108747343       -1.3110143476       -1.2813905143
 C          6.5948642694       -1.0747487595       -2.4658101864
 C          6.0003338658       -0.4483966055       -3.5452849045
 C          4.6758236282       -0.0610834588       -3.4539544507
 C          3.9728756161       -0.2851173553       -2.2890179659
 C          4.5816113051       -0.8882218279       -1.1838151545
 C          2.2994547055        0.7762414520        0.0488003552
 C          1.0148463412        1.2697302051        0.1076387826
 C         -0.0785342021        0.3866508904        0.1707786717
 C          0.7850155959        2.7245159881        0.1072957146
 O          1.6865629806        3.5396476970        0.0886613818
 H         -2.8699678698        4.2465903303        2.9213302364
 H         -1.9329334057        4.0120272753        4.4026238490
 H         -2.1907994838        5.6374168929        3.7683576007
 H         -0.5891055915        3.4019948724        2.4563425906
 H          1.3755417311        4.8617272809        2.8032032245
 H          0.3753436197        6.0196278096        3.6812408196
 H          0.6241145296        4.3996099173        4.3355282432
 H         -1.1901815303        7.1104201824        2.2669836031
 H         -1.4148515193        8.3211923414        0.1468062212
 H         -1.2339202222        7.1250038867       -1.9857898439
 H         -0.6090854406        3.4223704422       -2.2121728713
 H          0.5067077350        4.4506042878       -4.1329263191
 H          0.2439492429        6.0640247092       -3.4692414262
 H          1.3057425446        4.9315815729       -2.6307068643
 H         -2.9241837942        4.2076872566       -2.5872828435
 H         -2.3162953263        5.6270604003       -3.4412229841
 H         -2.0407387470        4.0166874485       -4.1072700981
 H         -3.4554364341        0.4096951661        0.2540407185
 H         -4.5078723525       -0.4713635439        2.0367706990
 H         -6.8700072688        0.2211694046        1.9437247535
 H         -8.3812339405       -0.7979122887        0.2756466321
 H         -7.5499412203       -2.4971158636       -1.2626463870
 H         -5.4963236425       -5.0179692723       -2.8530820161
 H         -6.5808938825       -3.6436503545       -2.8289351965
 H         -6.6247587826       -4.8166523211       -1.5026236536
 H         -3.2698041141       -2.1589061720       -2.0392291054
 H         -3.5645664637       -3.4948890901       -3.1510214910
 H         -4.6588522709       -2.1060339918       -3.1224096415
 H         -4.5792679829       -6.2584925639       -1.3246053095
 H         -3.0976290016       -7.4920754163        0.1684679019
 H         -1.7337178614       -6.2921077034        1.8431399001
 H         -1.8571740020       -3.8337872538        1.9850068289
 H         -0.7701834477       -2.9413601040        0.2132997010
 H          1.6471391842       -2.5503204656        0.0856681382
 H          2.6516322443       -1.4447570014        2.3002514029
 H          3.5620349277       -2.5745474526        4.2585512252
 H          5.8636708595       -3.5003529388        4.1943838942
 H          7.2137425573       -3.2281806599        2.1800201168
 H          8.5180014549       -1.0655385360       -0.5647804286
 H          7.5309782901       -0.2412999956        0.6425190340
 H          8.3934930029       -1.7210334656        1.0645372060
 H          7.7207356807       -3.3396347821       -1.4967160314
 H          7.5453074065       -3.9830464597        0.1326824165
 H          6.1681720822       -3.9904109370       -0.9699727741
 H          7.6233061416       -1.3889391150       -2.5552384244
 H          6.5623401692       -0.2758983753       -4.4499825493
 H          4.1838407318        0.4128714285       -4.2902265031
 H          2.9369548163        0.0075801987       -2.2360760062
 H          3.1312682555        1.4608577752        0.0062017122
