108
 energy: -157.742640779098 gnorm: 0.000036798619 xtb: 6.7.1 (edcfbbe)
C           -1.27933721540063        4.84289298080263        3.31697808515454
C           -0.01088304716805        4.52022411542443        2.52304383082986
C            1.25043768575165        4.85608373226193        3.32280538418211
C           -0.01254449106004        5.25529789191246        1.20301343482190
C           -0.01607864388801        6.64405294673381        1.17509858900609
C           -0.01710903065671        7.32872804698814       -0.02465656417768
C           -0.01525353255916        6.63629421099175       -1.21994383427922
C           -0.01287372967448        5.24737990298650       -1.23886046519310
C           -0.01104704745745        4.50372879934119       -2.55406672714489
C            1.25852484301945        4.82337063696479       -3.34745403348377
C           -1.27130050967573        4.83212837768893       -3.35854586792094
C           -0.01118369743974        4.57982844061147       -0.01575645915307
N           -0.00776279906534        3.13734020696439       -0.01093615601492
C           -1.24571941447809        2.51696359071312        0.00600686166778
O           -2.26894671324380        3.17360838559487        0.01410871102250
C           -1.22966267311376        1.04444456987862        0.01321633637046
C           -2.41871626661990        0.34798928697793        0.03053681693812
C           -2.41911351788467       -1.05683244606437        0.03614158720773
N           -3.65702624888506       -1.75180834233914        0.05033179205432
C           -4.27073258244615       -2.05482224543181       -1.15759841672798
C           -3.64236546199062       -1.70951646399692       -2.35718040799031
C           -4.22211041497893       -2.00705406898002       -3.57327758037641
C           -5.44239180423228       -2.65685523879920       -3.61227235064087
C           -6.06606193841440       -2.99693422853728       -2.42558692351472
C           -5.50656379372095       -2.70852159564660       -1.18787855418078
C           -6.24429919084028       -3.10536574603888        0.07772152507201
C           -7.61715811898614       -2.40684323539992        0.08660329979055
C           -6.42491712457161       -4.63497845293483        0.08526326364879
C           -5.48527975368928       -2.69826958077430        1.32737758525853
C           -6.02370529245910       -2.97649223678311        2.57671003258229
C           -5.37994269438121       -2.62692890753444        3.74981900650592
C           -4.16057692550571       -1.97748395416006        3.68483535024268
C           -3.60164895091240       -1.68976418253810        2.45669699177206
C           -4.25027708352346       -2.04473085304706        1.27082802702876
C           -1.23061127248696       -1.75051513006321        0.02583631292530
C            0.00248809602643       -1.06747981496737        0.00827723346225
C            1.23888079890110       -1.74464122761554       -0.00406060274024
C            2.42396045318330       -1.04533152776854       -0.02406457103033
N            3.66514304282174       -1.73447554070032       -0.03584116305138
C            4.27696879550873       -2.03771175007412        1.17298552744478
C            3.64464465820496       -1.69663390417043        2.37167521828894
C            4.22243905822843       -1.99450725698614        3.58861481912540
C            5.44517959529062       -2.63958191094401        3.62930297426530
C            6.07332219983038       -2.97442112017928        2.44349057329294
C            5.51561065677038       -2.68598150549772        1.20497478787137
C            6.25833064726422       -3.07676512723591       -0.05959538166754
C            7.62924494750474       -2.37445480050765       -0.06228471423413
C            6.44314204670782       -4.60587979254083       -0.07127476584758
C            5.50163814120182       -2.66851711998806       -1.31027988598778
C            6.04479661517218       -2.94102997230784       -2.55880805698266
C            5.40233103841537       -2.59202718594357       -3.73280448501135
C            4.17899876561185       -1.94991909476713       -3.66956185746647
C            3.61529893960945       -1.66804779935153       -2.44224057169361
C            4.26325974093757       -2.02123401770187       -1.25545258063467
C            2.41671399500780        0.35946908997255       -0.03153370562479
C            1.22430680938948        1.05026618913533       -0.01833460898777
C           -0.00097856806463        0.35133899870237        0.00119173059898
C            1.23316367520799        2.52285193223806       -0.02367270644960
O            2.25319748904796        3.18435323627365       -0.03780926359319
H           -2.16078996652070        4.60342008450343        2.72478003408336
H           -1.30548343373756        4.25722684934318        4.23345461250041
H           -1.31582921666431        5.89665296372861        3.57909727923275
H           -0.00471761638265        3.44107738409067        2.33221983713649
H            2.13729778102200        4.62731691198250        2.73445782853133
H            1.27406618807727        5.90973939444798        3.58670119001586
H            1.27895882139107        4.26947276500984        4.23861353453596
H           -0.01777061485847        7.19490977842687        2.10265103289779
H           -0.01936750787786        8.40872417625189       -0.02815308496247
H           -0.01577245460678        7.18114533702089       -2.15103702093475
H           -0.01584540754142        3.42585891911618       -2.35620820937036
H            1.28689840478899        4.23293417535497       -4.26080115106381
H            1.29445950374478        5.87580491968735       -3.61493220480998
H            2.13912159255783        4.58788110100842       -2.75237756633727
H           -2.15894392345007        4.60562342784814       -2.77051167239913
H           -1.29629769318667        5.88393635394870       -3.62953537302350
H           -1.29689319993214        4.23942559012125       -4.27050881407540
H           -3.35095914954833        0.89331195711890        0.03896730933169
H           -2.69093514011720       -1.20006211143584       -2.33570511831017
H           -3.71804634716087       -1.72939096281590       -4.48734930163207
H           -5.90670150944548       -2.89657775166637       -4.55697145578256
H           -7.01856674761411       -3.50238369789469       -2.47187427106250
H           -8.19893495553277       -2.68341922636492       -0.78815920115275
H           -7.48408353517128       -1.32615107129823        0.08257311052669
H           -8.18508286193425       -2.67862186794665        0.97190395341801
H           -6.96221330154161       -4.95654143409056        0.97301461521794
H           -6.98262733154926       -4.96267390038706       -0.78753588929919
H           -5.45231544701640       -5.12405994294899        0.07576813046899
H           -6.97536339312601       -3.48126233841937        2.64333223403450
H           -5.82806493048282       -2.85908168050629        4.70416274771149
H           -3.64102203164996       -1.69265004234841        4.58796428878369
H           -2.65076092347626       -1.18060683136763        2.41475752723129
H           -1.23807937956696       -2.83031863824662        0.03044041195419
H            1.25166956344021       -2.82438654834290        0.00210229405747
H            2.69176091931203       -1.18997916770573        2.34871926537967
H            3.71517402755318       -1.72043947679838        4.50199594275965
H            5.90813141002579       -2.87934305748451        4.57465848193001
H            7.02791452895235       -3.47579644307620        2.49114700848414
H            8.21023772786791       -2.65391473768467        0.81207265233227
H            8.19956641328821       -2.64018853636978       -0.94787332969583
H            7.49319616950887       -1.29417147143563       -0.05306920494837
H            6.98798186476687       -4.92285906329887       -0.95608645151713
H            6.99503233769043       -4.93518634557177        0.80461786624037
H            5.47177269190020       -5.09750951892950       -0.07083738526012
H            6.99907803575822       -3.44099281211979       -2.62408463313678
H            5.85421829447029       -2.81952602477620       -4.68649635895860
H            3.65992980275557       -1.66648096788764       -4.57340921019897
H            2.66088943611795       -1.16538251228130       -2.40175038798845
H            3.34626331958410        0.90922390169451       -0.04675731951189
