108
 energy: -157.744242252181 gnorm: 0.000168133890 xtb: 6.7.1 (edcfbbe)
C           -2.11727459522610        4.56968247330043        3.43595495073345
C           -0.77750686500862        4.50347791671114        2.69765700068979
C            0.36011480413729        5.07374319311376        3.54789811435634
C           -0.87687203988105        5.22726814661844        1.37512299943353
C           -1.10074499694105        6.59765138689925        1.34173040888620
C           -1.20009966663301        7.27033213491303        0.13924029343486
C           -1.08519188279118        6.58218066648125       -1.05304605599285
C           -0.86593865472049        5.21068364500115       -1.06570310907962
C           -0.75075785006761        4.47013307876056       -2.37763670787336
C            0.45198524660630        4.97739970158145       -3.17704832705758
C           -2.04919685473312        4.59566666380606       -3.17879056253737
C           -0.76245775187724        4.55527478145672        0.15967430990873
N           -0.52708711290560        3.13336785306269        0.16974170825870
C           -1.64928849557957        2.32035688031672        0.19739890840131
O           -2.76483355786435        2.80941485310596        0.20681336387791
C           -1.39467751178677        0.87424276686922        0.22512631859739
C           -2.45654991083805        0.00171972561347        0.28903841200589
C           -2.26049067814098       -1.39857417189878        0.33758718349075
N           -3.33448786959506       -2.24881079398474        0.41630882294631
C           -4.68115515703092       -1.82035821363458        0.38590920293008
C           -5.16713155413613       -0.90843624557298        1.31449095788591
C           -6.50044618454845       -0.54285726835162        1.28767953259288
C           -7.34909561866741       -1.10908265766981        0.35316691057611
C           -6.87276249120742       -2.05406461063110       -0.54059291182426
C           -5.53725660919600       -2.42682787429662       -0.53881821644992
C           -4.93325680036291       -3.46510238134458       -1.47013728516288
C           -5.99681678099628       -4.29128255968678       -2.19374457345956
C           -4.07871820338937       -2.74858432855972       -2.53621666781657
C           -4.02807694267610       -4.31986705636867       -0.59874917735363
C           -3.96237772178089       -5.70404292638048       -0.65501255040078
C           -3.12123461815156       -6.41122610017019        0.18815490351089
C           -2.35255198253336       -5.74480505628141        1.12614467612395
C           -2.41079419747461       -4.36557378179103        1.20653599048767
C           -3.21950412448756       -3.65528875993675        0.32814164071857
C           -0.95663039310497       -1.87275032806790        0.22338345607054
C            0.14302482331026       -1.00530715856016        0.15793845085576
C            1.46971657303207       -1.47838780574964        0.06558324623021
C            2.53269792302066       -0.60467293595161        0.03306505819340
N            3.86096021485039       -1.09479840482603       -0.03769133127202
C            4.42605572903929       -1.69500323003687        1.08115517754766
C            3.69008530102195       -1.79244795491390        2.26595296081921
C            4.21936567329982       -2.39944637117163        3.38577886585529
C            5.50162369606585       -2.91657880478701        3.34750261054447
C            6.24236000068943       -2.79529881268691        2.18646960022175
C            5.73565142558459       -2.18555419455013        1.04615740115406
C            6.61901478280329       -2.05447652041792       -0.18027318246491
C            7.86460081485449       -1.23130113352150        0.19900895177826
C            7.03227155147718       -3.46261498173510       -0.64823337804490
C            5.90214904646507       -1.35725147507198       -1.32102633736212
C            6.56940749857423       -1.15331224318398       -2.52164009471108
C            5.96346975537956       -0.54729513977715       -3.60670351447066
C            4.64371402070505       -0.14614771079988       -3.50513472714267
C            3.95651404363810       -0.33947889886373       -2.32491195325749
C            4.57668658678319       -0.92289742161029       -1.21577918838308
C            2.31312113829740        0.78236057525182        0.07195740517252
C            1.02721680680866        1.27780654477774        0.13569236804323
C           -0.06970380533964        0.39695366118984        0.18269153042004
C            0.79869061410694        2.72831838173308        0.14860015355724
O            1.69517702317090        3.55247112065314        0.13300458099830
H           -2.90682496183237        4.15808004078246        2.80948540009070
H           -2.06612109529917        3.99432951749997        4.35797870897454
H           -2.37255588336125        5.59703956935269        3.68159674486309
H           -0.55200708436896        3.44755207481798        2.51031484853801
H            1.29572554253960        5.03420951183785        2.99281596600216
H            0.16365269387307        6.10681016863086        3.82094744167779
H            0.47151388123930        4.49102408766931        4.45995231032688
H           -1.19689036331288        7.14409508401647        2.26696544649615
H           -1.37079395910366        8.33680717965620        0.13129351464533
H           -1.16658153402663        7.11696094556589       -1.98651729389761
H           -0.58876225886985        3.40560828645880       -2.17393163867495
H            0.56807805686699        4.39383373496089       -4.08794554910682
H            0.32512573048569        6.02175751264138       -3.44879269924446
H            1.35993087382174        4.88241229146972       -2.58398247433903
H           -2.88817310638440        4.23632820583847       -2.58548362482509
H           -2.23802606838070        5.62989939506763       -3.45305945856505
H           -1.98552108997583        4.00218826665894       -4.08841520561211
H           -3.44977186920378        0.42212921368856        0.27522195459849
H           -4.50622443185732       -0.49949875270534        2.06426902202963
H           -6.87444698455114        0.17357853489604        2.00360506881843
H           -8.39088251616319       -0.82644017097876        0.32776908697255
H           -7.56052869970110       -2.49633057618178       -1.24232091327151
H           -5.52343444482991       -5.01298577622357       -2.85448026879067
H           -6.61513206020153       -3.64551878585706       -2.81190210979505
H           -6.63082784476879       -4.81924632017540       -1.48503562812897
H           -3.29697030958845       -2.14091405610108       -2.08880540940804
H           -3.60987933822547       -3.48328869144697       -3.18740643056861
H           -4.71081136041547       -2.09977425084692       -3.13896056304148
H           -4.56831825487237       -6.24925416945339       -1.35967293694901
H           -3.07928755842018       -7.48807333342203        0.12108216436290
H           -1.71844760090509       -6.29569165410216        1.80452976505834
H           -1.84609144845118       -3.83826931692390        1.96078362128776
H           -0.76673133504220       -2.93201215853453        0.16225405363421
H            1.65061440803726       -2.54286031260808        0.03489713742834
H            2.69375087539613       -1.38071709591324        2.31259805322707
H            3.62806378012062       -2.46326360288197        4.28752888391869
H            5.92605567993066       -3.39911609008621        4.21503224709212
H            7.24804736418553       -3.18689923784472        2.17474897925692
H            8.53195828277246       -1.12387352780818       -0.65145003602401
H            7.56587173676569       -0.23735309737984        0.52850509559646
H            8.41502024489690       -1.70833667085705        1.00508316608644
H            7.67532215235600       -3.40699559999309       -1.52199671189757
H            7.56822486933164       -3.98960172687203        0.13610388885558
H            6.14758110080152       -4.04102211773011       -0.90909555223508
H            7.59450111000500       -1.47660341523281       -2.61976583802361
H            6.51388421158097       -0.39901834954128       -4.52353238392570
H            4.14315150893427        0.31492068557722       -4.34398112513336
H            2.92312581972766       -0.03425359938835       -2.26234819880442
H            3.14631975376043        1.46862512787518        0.04693391221451
