108
 energy: -157.697070160826 gnorm: 0.000048086050 xtb: 6.7.1 (edcfbbe)
C           -1.31652791244638        5.16378017961092        2.71732213063876
C           -0.05013255103398        4.76716809270468        1.95501595521997
C            1.21481733092539        5.17564087060912        2.71356341815078
C           -0.05352686985986        5.36784839020711        0.56844961395566
C           -0.06680073040299        6.74634129665538        0.40185225932638
C           -0.06957790638232        7.30753561546409       -0.86035265232710
C           -0.05878889740057        6.49664308099117       -1.97847768400466
C           -0.04462312783299        5.11346190501803       -1.85550371053969
C           -0.03355247424251        4.23813762902138       -3.08690036881888
C            1.22903766981399        4.48973484629202       -3.91434254655946
C           -1.30220243206960        4.45972278675355       -3.91374869618115
C           -0.04223544508802        4.56762120053276       -0.57314084931656
N           -0.02800963937881        3.14096069437885       -0.42023753470351
C           -1.26324457463637        2.51050709805490       -0.35649135797135
O           -2.30145683669465        3.17552295326118       -0.44962326966641
C           -1.23268446631398        1.07918080773351       -0.17325716444939
C           -2.43762287412026        0.36352798124824       -0.09135124016945
C           -2.41255411093793       -1.00569541053980        0.09396427253666
N           -3.64498963296234       -1.72251234604958        0.18223206092506
C           -4.12785332794534       -2.35657833062859       -0.94030631579967
C           -3.39096098868704       -2.30554424145620       -2.13406288844028
C           -3.84412942843623       -2.93601566417170       -3.27003532078105
C           -5.04710515003027       -3.62737793468231       -3.24251344224566
C           -5.78291215404359       -3.67107551356498       -2.07235699771364
C           -5.35153291366243       -3.04720489966144       -0.90945580196819
C           -6.20405794330849       -3.11235108267386        0.33860671431159
C           -7.56567052902129       -2.45420503836638        0.03637732845899
C           -6.40361961907782       -4.59079796068112        0.72824409945487
C           -5.56390416491338       -2.38465795987107        1.50032246846799
C           -6.20505672046503       -2.35303876121591        2.73138925997603
C           -5.65924272606512       -1.70501042476883        3.82433151005904
C           -4.43190564745442       -1.06895831755477        3.70126878011563
C           -3.77246305586913       -1.08190368049351        2.49383129567522
C           -4.32732218266258       -1.72815437572646        1.37801471883957
C           -1.21210589380359       -1.69906728999348        0.20212468284542
C            0.01242707725512       -1.01169315967076        0.12137358592838
C            1.25009731240235       -1.67254544676961        0.22097964574210
C            2.43677687681113       -0.95346497629370        0.13138032813466
N            3.68178396425432       -1.64544319012908        0.23938135989295
C            4.33881829810338       -1.64944645965313        1.44911258498961
C            3.75579221224044       -1.01080678127138        2.55487221837151
C            4.38927200910024       -0.99740760415494        3.77614000900024
C            5.61815947769731       -1.62535381065295        3.92318397333300
C            6.19201734593964       -2.26518431217416        2.83980489759109
C            5.57783816134564       -2.29645971724549        1.59505380188984
C            6.24715792343667       -3.01658438904584        0.44501580834029
C            7.61511405170227       -2.35593957157635        0.17934145500299
C            6.43856051976894       -4.49692271272984        0.83166788820934
C            5.42490017762824       -2.94596008055297       -0.82294765519692
C            5.88767624432476       -3.55747686615793       -1.98031843105358
C            5.17942112590606       -3.50846953223757       -3.16719202667145
C            3.97338048167294       -2.82371957918769       -3.21797267617460
C            3.48887834835559       -2.20643083312296       -2.08773699283357
C            4.19721686541018       -2.26401382231240       -0.87711092275032
C            2.43546970935927        0.41582350697742       -0.05438631813665
C            1.21675048543763        1.10542570327395       -0.15500444946796
C           -0.00122423184729        0.39992745607193       -0.07073241473596
C            1.21934503011108        2.53701866872027       -0.33858271696383
O            2.24440895700607        3.22392329377217       -0.41754436799463
H           -2.19624796673231        4.86679889331464        2.14876062435264
H           -1.34193406945243        4.66701232760701        3.68516612492130
H           -1.35414124915613        6.23812457760066        2.87724836120964
H           -0.04535886346281        3.67517448453327        1.86408513639861
H            2.09543397609725        4.88400606059429        2.14357849230808
H            1.24416081628646        6.25081945365071        2.86982514248257
H            1.24648966707840        4.68198698091901        3.68281552151846
H           -0.07506626013621        7.38830272113174        1.26968990434957
H           -0.08018616890332        8.38198707940920       -0.97319339313057
H           -0.06120838941808        6.94458946189433       -2.96062644764084
H           -0.02095464445735        3.18887815358175       -2.77108525975195
H            2.11138189741124        4.32483017681542       -3.29816482344784
H            1.26276856892065        3.80887315941929       -4.76253173672187
H            1.25294549920229        5.51046510737979       -4.28691097404957
H           -2.17992425662210        4.27271558197920       -3.29726303509987
H           -1.35104732088453        5.48009104584323       -4.28495281691182
H           -1.31981006398513        3.77921633071346       -4.76270624410712
H           -3.36762043955474        0.90475003619394       -0.17386289822396
H           -2.46120879731669       -1.76005443024459       -2.15653096526055
H           -3.26254258308171       -2.88594452413869       -4.17793168785665
H           -5.41091963288015       -4.12384581285928       -4.12890317248677
H           -6.71972625851627       -4.20550529801441       -2.07171034861710
H           -8.21222854699158       -2.49059556625537        0.90787703604082
H           -8.06542282133060       -2.96256510465592       -0.78261459396817
H           -7.42064405442351       -1.41176712801195       -0.24168895241948
H           -5.44011362068274       -5.05433690773312        0.93104402699178
H           -7.02035690874071       -4.67456211026672        1.61769443213508
H           -6.88753447875458       -5.13788586983593       -0.07494989088742
H           -7.15815414665348       -2.84457418639083        2.84668327638654
H           -6.18509390011447       -1.69749084615386        4.76661182748430
H           -3.99014244132433       -0.56327982716318        4.54634882633365
H           -2.81861739634504       -0.58816380112768        2.39733073375233
H           -1.21800182231946       -2.76777796693650        0.35185101778430
H            1.27678118306650       -2.74087116784250        0.37110629880884
H            2.80087384782324       -0.52316912646421        2.43942234985306
H            3.92592141001603       -0.49780166745824        4.61325571795029
H            6.12345140092688       -1.61802010759082        4.87664231641529
H            7.14564341476138       -2.75089235481342        2.97377324393358
H            8.13593242583008       -2.86089992014919       -0.62851405825626
H            7.47579465137989       -1.31273353411197       -0.09874482260902
H            8.23984765679625       -2.39465990127377        1.06651009331454
H            6.94010350749816       -5.03983358642316        0.03646610618861
H            7.03548300645446       -4.58463532416459        1.73419749732283
H            5.47097995104146       -4.96168303027296        1.01093105874360
H            6.82726700093202       -4.08669082661710       -1.96182499650621
H            5.56714812763703       -3.99546802918666       -4.04867557416446
H            3.41372714178946       -2.76878197926099       -4.13927053837945
H            2.55685558155644       -1.66564456017975       -2.12743259347872
H            3.35478653119969        0.97693022061878       -0.12269057262215
