  53
  -95.4338411657000       0.663921118693632      !
 O         -0.6393569528        2.3928822221        0.9839452870
 C         -1.5648228033        1.7379142373        0.5572817732
 O         -2.8216304685        2.1894733207        0.8776127695
 C         -3.9507036879        1.5495383196        0.5103886313
 C         -5.1743293408        2.0996426165        0.8885558899
 C         -6.3440483334        1.4585662321        0.5406827541
 C         -6.3135684709        0.2682593190       -0.1821955425
 C         -5.1105623134       -0.2807742786       -0.5603349998
 C         -3.9117197933        0.3544509188       -0.2193750051
 C         -2.6136121025       -0.1474531786       -0.5894755315
 O         -2.5833456040       -1.2974443260       -1.2881618831
 C         -1.4775679547        0.5266335664       -0.2336455556
 C         -0.1501556460       -0.0143197264       -0.7405197161
 C          0.1416937894       -1.4068167985       -0.2153449678
 C         -0.4158911694       -1.8683214014        0.9985014771
 C         -0.1255513074       -3.1182338672        1.4673739854
 C          0.7382023031       -3.9775248566        0.7577475948
 C          1.0629793865       -5.2691724200        1.2209318626
 C          1.9060282271       -6.0729124036        0.5061107334
 C          2.4600082588       -5.6236275946       -0.7037431183
 C          2.1632167482       -4.3777765110       -1.1802068567
 C          1.2992299591       -3.5224360421       -0.4646116526
 C          0.9761358716       -2.2319357945       -0.9263181293
 C          1.0379989017        0.9101762726       -0.5728791580
 C          1.8262547528        1.0017962339        0.5375736877
 O          1.6523029552        0.2801297724        1.6504035782
 C          2.9331280756        1.9290875361        0.5407339699
 C          3.7752617687        2.0999370713        1.6443645115
 C          4.7974935059        3.0193612195        1.6012642105
 C          4.9991313359        3.7879656905        0.4578044727
 C          4.1807199981        3.6365302068       -0.6412324168
 C          3.1435311106        2.7063000050       -0.6050431195
 O          2.3689132933        2.5778137399       -1.7060458894
 C          1.3276524992        1.7062551607       -1.7490444708
 O          0.7093899998        1.6224797220       -2.7970396298
 H         -5.1770810456        3.0204521813        1.4489729120
 H         -7.2913264024        1.8847993885        0.8327579553
 H         -7.2368095167       -0.2232136709       -0.4465435615
 H         -5.0622128058       -1.1994181079       -1.1224143906
 H         -1.6584771594       -1.5730343655       -1.3789649314
 H         -0.2541652116       -0.0728510451       -1.8354797214
 H         -1.0896212403       -1.2281457821        1.5503574793
 H         -0.5571913338       -3.4643684394        2.3948786136
 H          0.6332801583       -5.6085524666        2.1521896883
 H          2.1528277766       -7.0602218872        0.8662900500
 H          3.1236485237       -6.2726305570       -1.2551540710
 H          2.5863083468       -4.0257616377       -2.1099706205
 H          1.4060507686       -1.8880460578       -1.8558834940
 H          0.8607625172       -0.2704493732        1.5442055572
 H          3.5966887098        1.4990891426        2.5215071539
 H          5.4427295435        3.1484952660        2.4563159330
 H          5.8005623507        4.5100201931        0.4296389711
 H          4.3192519100        4.2236263210       -1.5350170516
  53
  -95.4325107305000       0.162439184046587      !
 O         -0.9412070850        2.4202954363       -1.6891336578
 C         -1.6750150134        1.7489133710       -0.9979208593
 O         -2.8995699510        2.2739707647       -0.6995588083
 C         -3.8202895892        1.5928143733        0.0184108804
 C         -5.0451832101        2.2083472100        0.2677254499
 C         -6.0110752112        1.5360395269        0.9858976014
 C         -5.7713248582        0.2495253667        1.4612032367
 C         -4.5637465267       -0.3632747530        1.2193469297
 C         -3.5683659926        0.3010710499        0.4948333209
 C         -2.2783332700       -0.2950327449        0.2142381071
 O         -2.1100596753       -1.5406947331        0.6850476485
 C         -1.3387706635        0.4261339129       -0.4719820561
 C          0.0425889547       -0.0470929163       -0.8906755376
 C          0.4270515101       -1.4433175932       -0.4499397850
 C          0.9802302154       -1.6749021583        0.8312387541
 C          1.3411957356       -2.9343308205        1.2169788622
 C          1.1824210721       -4.0353071128        0.3495508656
 C          1.5495596935       -5.3455429323        0.7188474396
 C          1.3941435671       -6.3841996492       -0.1558577356
 C          0.8669112560       -6.1602871080       -1.4380601048
 C          0.5004810778       -4.9019453505       -1.8249775675
 C          0.6459931631       -3.8090594688       -0.9450337710
 C          0.2819384683       -2.4997890800       -1.3163995800
 C          1.1459583901        0.9202904494       -0.5079280199
 C          1.2001547021        1.6436290975        0.6444796279
 O          0.2575610862        1.5926719034        1.6090248101
 C          2.3265874054        2.5136591964        0.8876517823
 C          2.4500008069        3.2996798947        2.0377806134
 C          3.5464519809        4.1130222940        2.2082608701
 C          4.5412097228        4.1583201984        1.2354504930
 C          4.4400023408        3.3914955028        0.0941374867
 C          3.3320191233        2.5656012290       -0.0869035745
 O          3.2720001845        1.8246451899       -1.2156201788
 C          2.2225610627        0.9977225628       -1.4812828559
 O          2.2593434684        0.3612693292       -2.5149287469
 H         -5.2111460891        3.2030326627       -0.1131553708
 H         -6.9601381596        2.0119736663        1.1773131847
 H         -6.5344553257       -0.2680664704        2.0208805510
 H         -4.3576484664       -1.3585214452        1.5781230742
 H         -1.2302753106       -1.8718262464        0.4183294028
 H          0.0512848223       -0.0416596398       -1.9877816907
 H          1.1241898614       -0.8487641687        1.5080635427
 H          1.7673656175       -3.1019779703        2.1951956221
 H          1.9570266916       -5.5108348801        1.7056872542
 H          1.6787825795       -7.3851012793        0.1315038572
 H          0.7547956320       -6.9923558904       -2.1167034867
 H          0.0969490640       -4.7216517636       -2.8106561469
 H         -0.1088771966       -2.3335879074       -2.3085015499
 H         -0.4727488779        1.0430756731        1.2774431386
 H          1.6672011768        3.2531275983        2.7776990406
 H          3.6350043796        4.7184978020        3.0967765270
 H          5.3988513043        4.7984261237        1.3728303095
 H          5.1989424501        3.4131772321       -0.6713059718
  53
  -95.4321912020000       0.115836564312320      !
 O         -0.9212515853        2.4574544687       -1.6221663955
 C         -1.6675289238        1.7809467031       -0.9498420752
 O         -2.8794708406        2.3229785787       -0.6309050458
 C         -3.8209963431        1.6329931765        0.0502414259
 C         -5.0324503631        2.2665327282        0.3193847725
 C         -6.0221205432        1.5841603136        0.9944248676
 C         -5.8196215181        0.2696060664        1.4063132185
 C         -4.6243647144       -0.3602490951        1.1471601246
 C         -3.6046121493        0.3143332407        0.4672852445
 C         -2.3237442371       -0.2958372453        0.1753197161
 O         -2.1858037104       -1.5654105536        0.5887081980
 C         -1.3608387120        0.4342695712       -0.4672404640
 C          0.0136989249       -0.0554090727       -0.8884603184
 C          0.3962555697       -1.4494357513       -0.4379108092
 C          0.8856386818       -1.6813528358        0.8692995022
 C          1.2603950448       -2.9346456651        1.2611366925
 C          1.1829819086       -4.0288185803        0.3741566557
 C          1.5728027656       -5.3313347224        0.7473687718
 C          1.5013366660       -6.3620239753       -0.1474971419
 C          1.0374871745       -6.1375673681       -1.4538535262
 C          0.6497501733       -4.8867541682       -1.8447194691
 C          0.7107184538       -3.8020399153       -0.9450505073
 C          0.3272654049       -2.4995220709       -1.3212058462
 C          1.1271546057        0.9031805477       -0.5113780577
 C          1.1964992669        1.6167639617        0.6462074094
 O          0.2613386873        1.5641120007        1.6181962918
 C          2.3302067052        2.4779565594        0.8854898757
 C          2.4714802348        3.2513074254        2.0421669219
 C          3.5721936773        4.0602080519        2.2061400904
 C          4.5532110509        4.1141250185        1.2198324843
 C          4.4347790872        3.3591038421        0.0723434002
 C          3.3230917716        2.5366738749       -0.1016132806
 O          3.2471933806        1.8064465437       -1.2362058173
 C          2.1924916366        0.9847254180       -1.4963674473
 O          2.2154064124        0.3565829854       -2.5356218655
 H         -5.1697582192        3.2827671064       -0.0132774311
 H         -6.9604478733        2.0743395642        1.2020061500
 H         -6.6023498630       -0.2566822872        1.9295858871
 H         -4.4465745323       -1.3765913097        1.4590212349
 H         -1.3036840990       -1.8954871429        0.3281319557
 H          0.0211589737       -0.0564546017       -1.9855444312
 H          0.9708869982       -0.8605836923        1.5621673000
 H          1.6362902374       -3.1021228163        2.2598073881
 H          1.9316172262       -5.4967461382        1.7529636820
 H          1.8036037093       -7.3568897367        0.1430306259
 H          0.9914489464       -6.9630408216       -2.1481299738
 H          0.2947706457       -4.7061149912       -2.8488414148
 H         -0.0118585032       -2.3326218373       -2.3318571856
 H         -0.4762561178        1.0234648724        1.2878665535
 H          1.6990632293        3.1983883927        2.7924927777
 H          3.6748658920        4.6554740450        3.1000062653
 H          5.4135782633        4.7518347957        1.3513672020
 H          5.1827106997        3.3877859351       -0.7036666486
  53
  -95.4315342934000       5.780313294746130E-002 !
 O         -0.8480562222        1.7862576605        1.7593074280
 C         -1.7213870902        1.4109645200        0.9940000379
 O         -2.9830582301        1.8566515145        1.2454708275
 C         -4.0632582248        1.3818565984        0.5851598103
 C         -5.3150555410        1.9024276101        0.9064185490
 C         -6.4374913288        1.4023945944        0.2811761144
 C         -6.3306702795        0.3826660793       -0.6623931017
 C         -5.0982409556       -0.1335418486       -0.9877252581
 C         -3.9448717118        0.3643107410       -0.3710846833
 C         -2.6165531959       -0.0866214941       -0.6929938489
 O         -2.5060805907       -1.0853803440       -1.5823018177
 C         -1.5266401999        0.4978465064       -0.1031101074
 C         -0.1564553577        0.0731327416       -0.5944834504
 C          0.2034238556       -1.3049723588       -0.0735924416
 C         -0.2209524033       -1.7408252908        1.1962795657
 C          0.0803343292       -2.9982916254        1.6356263510
 C          0.8198285478       -3.8914971684        0.8333505398
 C          1.1394699030       -5.1981738256        1.2566617667
 C          1.8535569107       -6.0370866623        0.4480203252
 C          2.2805335707       -5.6084672216       -0.8193819465
 C          1.9863473329       -4.3483672148       -1.2584933219
 C          1.2512891980       -3.4583977576       -0.4475111394
 C          0.9200449178       -2.1576042170       -0.8739914045
 C          1.0019601968        1.0470303496       -0.4785009972
 C          1.8108186254        1.2175586181        0.6117275519
 O          1.5625511853        0.6871748686        1.8091872028
 C          3.0087628323        2.0174823305        0.4829965270
 C          3.9089868858        2.2028600764        1.5374874012
 C          5.0230950565        2.9916654053        1.3674747998
 C          5.2582523902        3.6163721215        0.1453177753
 C          4.3823135321        3.4508975401       -0.9064365208
 C          3.2550084744        2.6481792258       -0.7420523403
 O          2.4164149435        2.5063280525       -1.7942011195
 C          1.3210707290        1.7031107235       -1.7328386616
 O          0.6683163419        1.5759315162       -2.7557546511
 H         -5.3774744016        2.6864995080        1.6438860663
 H         -7.4078360320        1.8039958565        0.5290998778
 H         -7.2183508273       -0.0013877885       -1.1402711335
 H         -4.9896933611       -0.9173592194       -1.7199938375
 H         -1.5724108827       -1.3397289675       -1.6386118908
 H         -0.2579965291        0.0065505298       -1.6891857840
 H         -0.7978113644       -1.0776684864        1.8222786065
 H         -0.2488942094       -3.3270891131        2.6105535413
 H          0.8077412702       -5.5215260944        2.2328504373
 H          2.0949641874       -7.0367291736        0.7769059975
 H          2.8437485794       -6.2848494682       -1.4448290539
 H          2.3121921080       -4.0125349003       -2.2327095074
 H          1.2473110469       -1.8332937074       -1.8521615988
 H          0.5871104604        0.6541484406        1.8946340887
 H          3.7015486259        1.7138043900        2.4755825927
 H          5.7150119276        3.1307235102        2.1835598384
 H          6.1317494058        4.2370524019        0.0177570518
 H          4.5453675839        3.9270864705       -1.8599730095
