  53
  -95.7267685300000       0.289542705801381      !
 O          1.6918007864       -1.6223204362        2.0255270403
 C          0.8539737933       -2.1083774139        1.2983423112
 O          0.8834089292       -3.4637208654        1.1358071563
 C         -0.0339981349       -4.1204061104        0.3912885713
 C          0.0736128805       -5.5057838977        0.2885701906
 C         -0.8533408567       -6.2073706826       -0.4525431409
 C         -1.8936241373       -5.5424125854       -1.0960925083
 C         -2.0048152429       -4.1747272680       -0.9994628159
 C         -1.0742050718       -3.4423764290       -0.2546912531
 C         -1.1414420435       -2.0014802488       -0.1221951356
 O         -2.1726901555       -1.4173587541       -0.7522592804
 C         -0.1770911555       -1.3459364065        0.5947755667
 C         -0.1088693704        0.1455899588        0.8742342359
 C         -1.1962100594        0.9888718310        0.2433073632
 C         -1.0733712762        1.4583619461       -1.0854312134
 C         -2.0497295325        2.2332143433       -1.6436250962
 C         -3.2002218822        2.5944763550       -0.9117462597
 C         -4.2222099486        3.3960595944       -1.4602837078
 C         -5.3149974307        3.7373010309       -0.7136640641
 C         -5.4348077927        3.2946819932        0.6136970459
 C         -4.4616910717        2.5153419586        1.1732264328
 C         -3.3226362610        2.1437466004        0.4286826595
 C         -2.3005174664        1.3455710927        0.9789792746
 C          1.2439054949        0.7513064769        0.5535193891
 C          2.0340672829        0.4100639163       -0.5016570371
 O          1.7079762624       -0.5321695966       -1.4112104563
 C          3.2938051908        1.0880540798       -0.6974258969
 C          4.1682250062        0.7866575090       -1.7464281979
 C          5.3576034375        1.4659996035       -1.8755321066
 C          5.6981502844        2.4591389524       -0.9613893531
 C          4.8508087161        2.7727199051        0.0800220349
 C          3.6444493013        2.0886320170        0.2186753840
 O          2.8380702128        2.4289088884        1.2485218358
 C          1.6458379428        1.8074006005        1.4676332731
 O          0.9818067394        2.1872049082        2.4108515621
 H          0.8842717191       -6.0007500041        0.7983287879
 H         -0.7710300787       -7.2802263932       -0.5305128188
 H         -2.6142674344       -6.1011469846       -1.6722845125
 H         -2.8023353154       -3.6404806458       -1.4896209447
 H         -2.1564720597       -0.4560347793       -0.5779021211
 H         -0.2019970287        0.2604616019        1.9613767264
 H         -0.1979708518        1.2075078603       -1.6616833081
 H         -1.9460508058        2.5916683922       -2.6572304341
 H         -4.1228919477        3.7355751112       -2.4811013952
 H         -6.0935836649        4.3529549095       -1.1381330303
 H         -6.3033522246        3.5772382194        1.1892470093
 H         -4.5456259291        2.1735899581        2.1945327705
 H         -2.3929770433        1.0215274449        2.0041977749
 H          0.8884051478       -0.9599992568       -1.1101788388
 H          3.8878841691        0.0118450922       -2.4417672446
 H          6.0288630117        1.2275938240       -2.6857638383
 H          6.6324338107        2.9886229102       -1.0658830034
 H          5.0966825895        3.5376581737        0.7988957085
  53
  -95.7266815500000       0.264082357450455      !
 O          1.7357134693       -1.6267604907        1.9647289438
 C          0.8886479305       -2.1198657265        1.2534344801
 O          0.9416690195       -3.4718609932        1.0700764820
 C          0.0068079386       -4.1401040713        0.3587421083
 C          0.1390658384       -5.5217400458        0.2361809845
 C         -0.8082186744       -6.2365369884       -0.4655851377
 C         -1.8934839100       -5.5885245970       -1.0495286681
 C         -2.0277476370       -4.2241579377       -0.9355394230
 C         -1.0763003108       -3.4782676170       -0.2315635076
 C         -1.1622085575       -2.0395390664       -0.0871528745
 O         -2.2313748020       -1.4681842878       -0.6634958885
 C         -0.1785896801       -1.3707513284        0.5898578080
 C         -0.1298691840        0.1206658320        0.8724639335
 C         -1.2138611897        0.9607227847        0.2306536226
 C         -1.1106525436        1.3711747917       -1.1195157327
 C         -2.0744246679        2.1560405018       -1.6850692145
 C         -3.1908145072        2.5896860086       -0.9397061828
 C         -4.1955385523        3.4090225818       -1.4937937729
 C         -5.2522308826        3.8246510545       -0.7329606542
 C         -5.3522114210        3.4404299372        0.6140664974
 C         -4.3956894923        2.6444879474        1.1790372730
 C         -3.2931789618        2.1981027822        0.4207911409
 C         -2.2862449812        1.3849051792        0.9774557006
 C          1.2187365245        0.7407712343        0.5600530216
 C          2.0092522962        0.4186422105       -0.5007635465
 O          1.6880590112       -0.5156904040       -1.4205012077
 C          3.2634933990        1.1080473263       -0.6899755626
 C          4.1367507282        0.8292726967       -1.7462131798
 C          5.3230605008        1.5157023464       -1.8656324647
 C          5.6619692124        2.4930925631       -0.9339919386
 C          4.8152932481        2.7849560352        0.1142302851
 C          3.6113588980        2.0945872773        0.2424243725
 O          2.8052301663        2.4148032674        1.2787211123
 C          1.6160144140        1.7849632717        1.4893699323
 O          0.9510299067        2.1476572262        2.4387836718
 H          0.9842073198       -6.0036237158        0.7006956833
 H         -0.7063448052       -7.3063906361       -0.5597060815
 H         -2.6314315492       -6.1579367104       -1.5923550728
 H         -2.8591472039       -3.7029969644       -1.3816158717
 H         -2.2136672222       -0.5059650270       -0.4937723563
 H         -0.2322425996        0.2352366574        1.9587620076
 H         -0.2599805257        1.0681692886       -1.7073420937
 H         -1.9859049451        2.4677647449       -2.7154483705
 H         -4.1111434619        3.7035839130       -2.5298637358
 H         -6.0173557162        4.4540823099       -1.1618311665
 H         -6.1920028490        3.7814027117        1.2006103159
 H         -4.4645039275        2.3474889998        2.2153567497
 H         -2.3620635722        1.1083643657        2.0176737367
 H          0.8734247912       -0.9546424930       -1.1219123580
 H          3.8578264541        0.0662787344       -2.4550564679
 H          5.9931923238        1.2951989170       -2.6818318903
 H          6.5945400476        3.0272306335       -1.0299869441
 H          5.0600165612        3.5372210261        0.8467764193
  53
  -95.7265843800000       0.238277562179370      !
 O          2.0320721978       -1.6000216334       -0.6429808127
 C          1.0308877561       -2.1573996993       -0.2499524920
 O          0.9824400151       -3.5164513000       -0.4415630958
 C         -0.0791153204       -4.2725265490       -0.0942488352
 C         -0.0189983140       -5.6445192636       -0.3328004813
 C         -1.0957059400       -6.4394195846       -0.0025409795
 C         -2.2406006901       -5.8844965842        0.5645472641
 C         -2.3077994721       -4.5318583200        0.8043496942
 C         -1.2256983549       -3.7072795330        0.4785964848
 C         -1.2118016089       -2.2860942993        0.7109864836
 O         -2.3176253941       -1.7491852012        1.2591111906
 C         -0.1173020294       -1.5355418613        0.3788029115
 C         -0.1403542422       -0.0589208563        0.7402366121
 C         -1.2526925151        0.6894696294        0.0312599182
 C         -1.7810609335        0.2331462026       -1.1975225772
 C         -2.7686373795        0.9312226284       -1.8329766698
 C         -3.2832900447        2.1237562096       -1.2843263164
 C         -4.2961394044        2.8699915863       -1.9212267679
 C         -4.7685040690        4.0227798352       -1.3593998973
 C         -4.2523656011        4.4800674231       -0.1358860226
 C         -3.2717337933        3.7783709830        0.5069445777
 C         -2.7602374941        2.5865409203       -0.0480956218
 C         -1.7476437207        1.8421435654        0.5871051160
 C          1.1864094713        0.6624464662        0.6226157263
 C          1.6813475480        1.2412669768       -0.5100140205
 O          1.0554569039        1.2468805143       -1.6922498111
 C          2.9636622206        1.9032312970       -0.4598142327
 C          3.5515906007        2.5019303427       -1.5788668524
 C          4.7893162106        3.0937404086       -1.4791057109
 C          5.4661816536        3.0986556153       -0.2622491737
 C          4.9057336225        2.5138699048        0.8533383779
 C          3.6516236756        1.9131375171        0.7599171724
 O          3.1291364727        1.3600034607        1.8778610086
 C          1.9198316751        0.7409611996        1.8703869205
 O          1.5043435393        0.3091041650        2.9326626880
 H          0.8749383984       -6.0547887837       -0.7738459895
 H         -1.0488940610       -7.5016289522       -0.1864928057
 H         -3.0761891114       -6.5184657537        0.8168856993
 H         -3.1820725186       -4.0803629436        1.2447767220
 H         -2.2166402475       -0.7851525448        1.2635542647
 H         -0.3359358953       -0.0233426071        1.8235940431
 H         -1.4073212529       -0.6853697756       -1.6275564460
 H         -3.1685964964        0.5749249523       -2.7707782269
 H         -4.6888072276        2.5125214115       -2.8620181557
 H         -5.5427071139        4.5912430157       -1.8522268768
 H         -4.6380934498        5.3926453502        0.2931743915
 H         -2.8699427273        4.1247915276        1.4481875718
 H         -1.3506055429        2.1979194409        1.5267661978
 H          0.2318895308        0.7407924487       -1.6112354176
 H          3.0127174086        2.4805096345       -2.5123777639
 H          5.2390370469        3.5521959459       -2.3461052980
 H          6.4382020807        3.5616084984       -0.1894577657
 H          5.4148138751        2.5054174357        1.8038591632
  53
  -95.7262734200000       0.171465135412695      !
 O          1.4450076306       -1.6420493213       -1.4902031358
 C          0.6965699688       -2.2221265180       -0.7203988360
 O          0.6295980408       -3.5765290205       -0.8420423419
 C         -0.2827875468       -4.3187287905       -0.1749854318
 C         -0.2716596529       -5.6998872991       -0.3579477782
 C         -1.2209304161       -6.4746650835        0.2740550853
 C         -2.1891436813       -5.8895992722        1.0875911424
 C         -2.2042092843       -4.5274810773        1.2762726893
 C         -1.2454795873       -3.7226148009        0.6506601438
 C         -1.1628091635       -2.2979539622        0.8374824308
 O         -2.1060083299       -1.7230592568        1.5993639900
 C         -0.1518069683       -1.5819321736        0.2521078749
 C         -0.0423204965       -0.1118910104        0.6073933051
 C         -1.1215336358        0.6958920279       -0.0874446056
 C         -1.5852420538        0.3463564626       -1.3701906031
 C         -2.5835149401        1.0621852368       -1.9668993143
 C         -3.1759589241        2.1649304329       -1.3178403980
 C         -4.2133965144        2.9181383077       -1.9053504157
 C         -4.7665935059        3.9773317148       -1.2422679185
 C         -4.3082916027        4.3317866419        0.0370495877
 C         -3.3047982997        3.6214368815        0.6333890702
 C         -2.7128755879        2.5231309651       -0.0249420122
 C         -1.6856398314        1.7618572653        0.5657534080
 C          1.3141869497        0.5649022597        0.5319380523
 C          1.8758794179        1.1318786727       -0.5793537436
 O          1.3889058225        0.9875773933       -1.8117851280
 C          3.0688265135        1.9364600885       -0.4342816316
 C          3.6771288625        2.5851586756       -1.5140397778
 C          4.8236394833        3.3212394079       -1.3241616603
 C          5.3898858497        3.4197231258       -0.0557408881
 C          4.8095754215        2.7853798134        1.0220745825
 C          3.6446826294        2.0431058850        0.8370077238
 O          3.1006495243        1.4339862511        1.9156082852
 C          1.9395564147        0.7315942991        1.8306923637
 O          1.4843067557        0.2844196158        2.8705974136
 H          0.4815081881       -6.1328567274       -0.9965390965
 H         -1.2141570545       -7.5444342331        0.1331058131
 H         -2.9280978652       -6.5083863310        1.5722465163
 H         -2.9386082513       -4.0528043794        1.9069149914
 H         -1.9768561007       -0.7628429680        1.5692384084
 H         -0.2313480768       -0.0693499357        1.6916330528
 H         -1.1538683755       -0.5009572378       -1.8804790021
 H         -2.9355295094        0.7884572294       -2.9508408602
 H         -4.5613029787        2.6398953512       -2.8897725027
 H         -5.5610830843        4.5501794960       -1.6965367138
 H         -4.7570954993        5.1716108631        0.5461257251
 H         -2.9476107525        3.8892831654        1.6176302811
 H         -1.3387677194        2.0358362163        1.5525221890
 H          0.9824261970        0.0966108298       -1.8405847767
 H          3.2231668896        2.4885183669       -2.4870803023
 H          5.2884976414        3.8205862029       -2.1600088799
 H          6.2912933138        3.9953994820        0.0876958627
 H          5.2330746923        2.8477939076        2.0116842050
  53
  -95.7248148500000       3.663223915609914E-002 !
 O          2.1555828477       -1.7840907714        1.1611821324
 C          1.1278231880       -2.2693058341        0.7427679669
 O          1.1584689566       -3.6067471414        0.4472550746
 C          0.0540818362       -4.2995788771        0.0948444977
 C          0.1874137455       -5.6586665071       -0.1816624192
 C         -0.9282000259       -6.3964604412       -0.5162279466
 C         -2.1829333324       -5.7955028368       -0.5769318400
 C         -2.3213650678       -4.4538500112       -0.3064270264
 C         -1.2019240663       -3.6851233241        0.0293054549
 C         -1.2756219116       -2.2685356558        0.3054577017
 O         -2.5091841619       -1.7390019093        0.3079412629
 C         -0.1304214542       -1.5575245974        0.5475132544
 C         -0.1589366043       -0.0749355766        0.8684905885
 C         -1.2337585876        0.7277312776        0.1549132618
 C         -1.5112040942        0.5652041429       -1.2223989547
 C         -2.4387722187        1.3512571792       -1.8443979180
 C         -3.1425493866        2.3484346363       -1.1384156829
 C         -4.1069688461        3.1724686364       -1.7538243562
 C         -4.7680354618        4.1263675142       -1.0320758068
 C         -4.4938532005        4.3008496461        0.3343474162
 C         -3.5640528424        3.5180607361        0.9588867769
 C         -2.8658939957        2.5233936716        0.2424175887
 C         -1.9049365079        1.6988553944        0.8580567082
 C          1.1420505180        0.6735084956        0.6420839861
 C          1.8908431986        0.6145105639       -0.4948974306
 O          1.5901892938       -0.1758127349       -1.5409922550
 C          3.0777383843        1.4254935366       -0.6089641082
 C          3.9049421055        1.4144465219       -1.7366420963
 C          5.0314199498        2.2028162598       -1.7781364537
 C          5.3559902696        3.0160336615       -0.6956030317
 C          4.5550033123        3.0420789341        0.4262388503
 C          3.4114508419        2.2470153709        0.4759755133
 O          2.6482174164        2.3034094651        1.5904069811
 C          1.5205777693        1.5562759786        1.7299059835
 O          0.8888958136        1.6836412036        2.7625501913
 H          1.1663607883       -6.1058940080       -0.1215807131
 H         -0.8259885062       -7.4493435044       -0.7281063677
 H         -3.0488274544       -6.3842538780       -0.8359595374
 H         -3.2824971725       -3.9677033758       -0.3490952532
 H         -2.4392593436       -0.7740128609        0.4276678285
 H         -0.3351847861        0.0236435443        1.9478307900
 H         -1.0082745396       -0.1993295226       -1.7936209059
 H         -2.6436112370        1.2176208891       -2.8964854143
 H         -4.3119629772        3.0345322755       -2.8056069938
 H         -5.5057308396        4.7550319999       -1.5077809236
 H         -5.0256401624        5.0605031554        0.8876132210
 H         -3.3453510177        3.6468544018        2.0088963632
 H         -1.6814928203        1.8517637298        1.9020974737
 H          0.8414190131       -0.7311403692       -1.2775327252
 H          3.6378840389        0.7743793053       -2.5619378092
 H          5.6669838148        2.1891700092       -2.6498231884
 H          6.2427515047        3.6297443256       -0.7312089851
 H          4.7913675292        3.6629968482        1.2754227791
