  95
       -147.84573440
 C          1.0818599643       -6.9372165463        0.4009202579
 C          0.0342069181       -6.9326365576        1.3068741149
 C         -1.0326851979       -6.0694440026        1.1355437919
 C         -1.0548517976       -5.2035987969        0.0461651501
 N         -2.1525034701       -4.3554665963       -0.1508608503
 C         -2.1558980196       -3.0022774442       -0.4886226500
 C         -1.0446906918       -2.1220448056       -0.4216386860
 C          0.1417985449       -2.3738211382        0.3152496996
 C          1.1532977333       -1.4597022458        0.3585042958
 C          1.0503065723       -0.1981176059       -0.2808060348
 C          2.0450320749        0.8162055717       -0.1317617948
 C          3.4021914566        0.4844654480       -0.0114551052
 C          4.3875066177        1.4401480050       -0.1168100536
 N          5.7336644907        1.0859852769       -0.0079367959
 C          6.7445728745        1.4641330201       -0.8674781761
 C          6.6742978640        2.1906753699       -2.0483459585
 C          7.8498123938        2.4111681627       -2.7410020112
 C          9.0676648195        1.9132102299       -2.2836427716
 C          9.1396881919        1.1638431233       -1.1246406070
 C          7.9729800862        0.9304074091       -0.4111879715
 C          7.6764504320        0.1941761414        0.7871699107
 C          8.4547593631       -0.5214726940        1.6856410520
 C          7.8394030531       -1.1010246390        2.7787912720
 C          6.4696605640       -0.9595032119        2.9890090463
 C          5.6739966320       -0.2521045744        2.1078008466
 C          6.2820216195        0.3118589094        0.9948597947
 C          4.0391795261        2.7960422565       -0.3450405621
 C          2.7193734481        3.1574812879       -0.3844731160
 C          1.6937957346        2.2189270971       -0.2044276402
 C          0.3379192192        2.6338967711        0.0200653190
 C         -0.2323078436        3.7485093538       -0.6286435485
 C         -1.5721817612        4.0249420350       -0.5224193265
 C         -2.4032345582        3.2191726599        0.2690508202
 N         -3.7812422818        3.3944638353        0.2885900344
 C         -4.4761700942        4.5796814034        0.4135041435
 C         -3.9989742703        5.8666903964        0.6194085108
 C         -4.9243717796        6.8862351197        0.7450425328
 C         -6.2928920886        6.6365527567        0.6807924564
 C         -6.7750109047        5.3522091931        0.5061140155
 C         -5.8662570063        4.3130742192        0.3761920816
 C         -6.0058496091        2.8902825715        0.2116764667
 C         -7.0980959703        2.0440529208        0.0845781396
 C         -6.8703787110        0.6916455047       -0.0972608004
 C         -5.5753688945        0.1851308241       -0.1735829748
 C         -4.4728051981        1.0092932777       -0.0503320616
 C         -4.6956052346        2.3619359131        0.1652543551
 C         -1.8277196401        2.1876044297        1.0210759239
 C         -0.4961831543        1.9010246164        0.8976993853
 C         -0.1271435023        0.0284702778       -1.0529769882
 C         -1.1286386551       -0.8899933018       -1.1145700369
 N         -3.3733421289       -2.5851537818       -0.8264839690
 C         -4.1932999480       -3.6521816358       -0.7076806845
 C         -5.5649177091       -3.7698503234       -0.9468415225
 C         -6.1473862050       -5.0040001521       -0.7613021037
 C         -5.4024651442       -6.1153789991       -0.3587023803
 C         -4.0422544530       -6.0275257016       -0.1168627466
 C         -3.4508490198       -4.7882280256       -0.2793441433
 C         -0.0037783301       -5.2133203451       -0.8689840776
 C          1.0604545790       -6.0739913332       -0.6835285045
 H          1.9132350340       -7.6115818530        0.5391910185
 H          0.0486501395       -7.6012793045        2.1547688801
 H         -1.8436290342       -6.0486239163        1.8485117354
 H          0.2294634563       -3.2810482038        0.8926022286
 H          2.0211632839       -1.6699863653        0.9667020705
 H          3.6892135281       -0.5528973941        0.0714050935
 H          5.7316673376        2.5595626542       -2.4227442106
 H          7.8221375537        2.9763776418       -3.6606896243
 H          9.9643575968        2.1077291637       -2.8526129613
 H         10.0810185533        0.7624504033       -0.7811204963
 H          9.5192424648       -0.6158567725        1.5334785196
 H          8.4267478906       -1.6637376282        3.4887250472
 H          6.0198867823       -1.4089674508        3.8618764762
 H          4.6169230563       -0.1305169133        2.2884583864
 H          4.8200205543        3.5372689574       -0.4097430885
 H          2.4625809961        4.2029500461       -0.4720253684
 H          0.3773388234        4.3432015406       -1.2921901194
 H         -2.0078662702        4.8268310545       -1.0994353618
 H         -2.9410515088        6.0664186959        0.6958271961
 H         -4.5781133036        7.8968126993        0.9024070321
 H         -6.9847067044        7.4594097118        0.7813378410
 H         -7.8365788977        5.1580489548        0.4770346581
 H         -8.1025271345        2.4379792144        0.1203813005
 H         -7.7090053284        0.0182699081       -0.1939362174
 H         -5.4093945957       -0.8676351504       -0.3373540083
 H         -3.4791764372        0.5997421911       -0.1348742876
 H         -2.4448921617        1.6284571389        1.7073729323
 H         -0.0604864683        1.1269328253        1.5093686819
 H         -0.1912697421        0.9251617834       -1.6501578854
 H         -2.0062415042       -0.7166262905       -1.7174934363
 H         -6.1384184895       -2.9192154302       -1.2791938436
 H         -7.2062203897       -5.1241603245       -0.9390174123
 H         -5.8992827454       -7.0664983859       -0.2382186497
 H         -3.4693461347       -6.8943356264        0.1767519935
 H         -0.0309821715       -4.5413551649       -1.7138719744
 H          1.8741040354       -6.0763965585       -1.3933665925
  95
       -147.84476456
 C         -0.2146780900       -5.8092688626        2.9040353541
 C         -0.5976071309       -4.4775351196        2.9405531194
 C         -1.2697979342       -3.9160899369        1.8726651336
 C         -1.5523438888       -4.6885831874        0.7474598784
 N         -2.2632036180       -4.1354112987       -0.3259965696
 C         -2.0552148874       -2.9183871421       -0.9802031631
 C         -0.9047342355       -2.1026966112       -0.9011181655
 C          0.3374181543       -2.4837563872       -0.3201082632
 C          1.3647168932       -1.5955441155       -0.2092988593
 C          1.2245342284       -0.2413536218       -0.6134271417
 C          2.1920807769        0.7599248748       -0.2977187506
 C          3.5619182650        0.4585632439       -0.2527049283
 C          4.5127082928        1.4500338895       -0.1631413991
 N          5.8717344131        1.1281128372       -0.1459115434
 C          6.8536892405        1.7209882194       -0.9128628395
 C          6.7392673271        2.6900318635       -1.9003954633
 C          7.8941526656        3.0996724161       -2.5393753734
 C          9.1349093862        2.5538517267       -2.2192193817
 C          9.2511222369        1.5659289173       -1.2598940870
 C          8.1055915619        1.1389553989       -0.6040738615
 C          7.8540649589        0.1420301044        0.4003092146
 C          8.6699523097       -0.7362458965        1.0990091027
 C          8.0934980864       -1.5701481079        2.0378068891
 C          6.7254688503       -1.5219812306        2.2951068795
 C          5.8930182906       -0.6557110875        1.6121350433
 C          6.4616796248        0.1657020185        0.6486000204
 C          4.1170919062        2.8078060623       -0.0973313742
 C          2.7826114244        3.1231974919       -0.0714726242
 C          1.7943724743        2.1343914030       -0.1045908431
 C          0.4135237074        2.4571869006        0.1555829490
 C         -0.1862312233        3.6329512777       -0.3305163932
 C         -1.5389572649        3.8415816081       -0.2134535191
 C         -2.3491381038        2.8971364649        0.4293232631
 N         -3.7336757651        3.0289725538        0.4521124726
 C         -4.4563473649        4.1672077199        0.7461669664
 C         -4.0111830376        5.4128824124        1.1662454157
 C         -4.9602090232        6.3842208923        1.4251013943
 C         -6.3211609912        6.1255502712        1.2837983395
 C         -6.7720392694        4.8773943882        0.8959510783
 C         -5.8386839942        3.8871447411        0.6289395542
 C         -5.9442644977        2.5076675483        0.2348315830
 C         -7.0165460884        1.6773595907       -0.0591041442
 C         -6.7584504648        0.3776779771       -0.4544988078
 C         -5.4521474275       -0.0902330177       -0.5757610615
 C         -4.3690374543        0.7178039679       -0.2849519674
 C         -4.6228116935        2.0147601309        0.1400034845
 C         -1.7475587540        1.7839542938        1.0254951297
 C         -0.4019527165        1.5679315247        0.8882415285
 C          0.0410095367        0.0815156918       -1.3442014085
 C         -0.9670907485       -0.8143093817       -1.4975228438
 N         -3.0853500231       -2.6115593364       -1.7736618931
 C         -3.9675284648       -3.6227670256       -1.6707307605
 C         -5.2100733437       -3.8010775541       -2.2879118200
 C         -5.9253285195       -4.9349850166       -1.9747309066
 C         -5.4429103285       -5.8810190643       -1.0655730764
 C         -4.2151186962       -5.7302744739       -0.4416600570
 C         -3.4790290245       -4.6053767580       -0.7616816718
 C         -1.1693903119       -6.0258194571        0.7118289624
 C         -0.5031002587       -6.5797144823        1.7897674010
 H          0.3065606412       -6.2451557182        3.7426702598
 H         -0.3787689111       -3.8752673690        3.8097895951
 H         -1.5771766288       -2.8810589374        1.8941778087
 H          0.4777792111       -3.4965234387        0.0230617012
 H          2.2830103787       -1.9130321726        0.2630452731
 H          3.8836896453       -0.5629684728       -0.3850454733
 H          5.7791675385        3.1008098484       -2.1725898211
 H          7.8318406267        3.8551768858       -3.3083893738
 H         10.0144932599        2.9020553585       -2.7393450691
 H         10.2102602612        1.1293335845       -1.0264610822
 H          9.7328884316       -0.7610468099        0.9131358848
 H          8.7100132243       -2.2638359334        2.5894126783
 H          6.3061499973       -2.1736135387        3.0472254191
 H          4.8374519531       -0.6111363263        1.8322403232
 H          4.8697938111        3.5739465773        0.0009258645
 H          2.4872600163        4.1545064990        0.0558152092
 H          0.4120964511        4.3433703233       -0.8810564098
 H         -1.9958508351        4.7061880853       -0.6709099839
 H         -2.9598419495        5.6157970663        1.3019123089
 H         -4.6387248210        7.3629372412        1.7486753562
 H         -7.0319597683        6.9107491042        1.4926986143
 H         -7.8280165192        4.6728372882        0.8060077369
 H         -8.0290033684        2.0450766255        0.0129050006
 H         -7.5796008937       -0.2842960184       -0.6857240437
 H         -5.2728939494       -1.0996281910       -0.9122642225
 H         -3.3638741359        0.3468637417       -0.4058169302
 H         -2.3551593666        1.1017743924        1.6002313197
 H          0.0542225772        0.7211720654        1.3769173753
 H         -0.0215055813        1.0455723548       -1.8254857065
 H         -1.8507004130       -0.5740163931       -2.0669299805
 H         -5.5811686927       -3.0649494741       -2.9829940694
 H         -6.8872126487       -5.1019789001       -2.4368025907
 H         -6.0429468413       -6.7507628809       -0.8435936324
 H         -3.8553312640       -6.4600075128        0.2683333841
 H         -1.3829039672       -6.6167318623       -0.1664665574
 H         -0.2040960940       -7.6168162299        1.7566129421
  95
       -147.84473873
 C          1.0695627366       -6.9456301157       -0.0081650521
 C         -0.0107748108       -6.9928306625        0.8574010453
 C         -1.0716233410       -6.1203547018        0.6974777014
 C         -1.0545297953       -5.1918391243       -0.3392271722
 N         -2.1439522979       -4.3304886841       -0.5233723051
 C         -2.1381256660       -2.9557331979       -0.7656576909
 C         -1.0372670448       -2.0804329219       -0.6001948589
 C          0.1406200031       -2.3868823321        0.1333181404
 C          1.1443781683       -1.4748254052        0.2700018130
 C          1.0447700923       -0.1625509352       -0.2606097667
 C          2.0406906418        0.8332318069       -0.0259633204
 C          3.3978673755        0.4900287011        0.0924432932
 C          4.3833828547        1.4489331428        0.1067522965
 N          5.7336805154        1.0890665979        0.1738987024
 C          6.3624922686        0.1343714663       -0.5993575075
 C          5.8540971201       -0.6508210090       -1.6254401632
 C          6.7200802514       -1.5169190417       -2.2654628527
 C          8.0633826322       -1.6012826035       -1.9063586692
 C          8.5819090845       -0.8034178783       -0.9046810801
 C          7.7319077430        0.0748342914       -0.2477015049
 C          7.9276005041        1.0436749486        0.7952459500
 C          9.0281436055        1.4280845100        1.5478779620
 C          8.8608939351        2.3996282745        2.5160096459
 C          7.6121690748        2.9715581895        2.7490474542
 C          6.5011901393        2.6030050046        2.0146004041
 C          6.6687156665        1.6484670949        1.0202952846
 C          4.0408475174        2.8202691523        0.0022148727
 C          2.7210701772        3.1857821960       -0.0359916399
 C          1.6945248860        2.2360019557        0.0284219586
 C          0.3312960086        2.6331580910        0.2605250536
 C         -0.2291530116        3.7917427872       -0.3117696654
 C         -1.5723362810        4.0577723822       -0.2081695552
 C         -2.4131199368        3.1940280134        0.5065690540
 N         -3.7931034417        3.3574250684        0.5109292863
 C         -4.5039894883        4.5225315442        0.7120851287
 C         -4.0461430287        5.7960142152        1.0202182361
 C         -4.9860371175        6.7929587999        1.2056140821
 C         -6.3499990695        6.5333897903        1.1006363148
 C         -6.8133428020        5.2603872498        0.8225525459
 C         -5.8898292032        4.2442928667        0.6305162090
 C         -6.0096456059        2.8365912630        0.3563183977
 C         -7.0889825909        1.9904142912        0.1461459505
 C         -6.8414406141        0.6588528512       -0.1364904126
 C         -5.5392518850        0.1741534263       -0.2308178178
 C         -4.4495006347        0.9985402115       -0.0240944574
 C         -4.6926054749        2.3278309071        0.2921030920
 C         -1.8467534340        2.1121797059        1.1917537951
 C         -0.5125602221        1.8368534406        1.0682500808
 C         -0.1258349278        0.1248561718       -1.0253037076
 C         -1.1177689357       -0.7907961436       -1.1846643506
 N         -3.3476518201       -2.5170812486       -1.1156435484
 C         -4.1670763996       -3.5882576607       -1.0965766498
 C         -5.5306605503       -3.6889557673       -1.3887547010
 C         -6.1154159763       -4.9330695183       -1.3102207594
 C         -5.3814257929       -6.0701528303       -0.9616682744
 C         -4.0301087975       -5.9995447228       -0.6677720310
 C         -3.4363484496       -4.7523408683       -0.7231390353
 C          0.0289230635       -5.1502178086       -1.2150395938
 C          1.0865612431       -6.0212492546       -1.0410286537
 H          1.8965248640       -7.6269628094        0.1216913761
 H         -0.0263751974       -7.7092605692        1.6653245128
 H         -1.9082187429       -6.1400787679        1.3801855814
 H          0.2258135839       -3.3386665113        0.6336929968
 H          2.0037943875       -1.7314622158        0.8722879611
 H          3.6787414788       -0.5511983588        0.1270592932
 H          4.8201110549       -0.5794496092       -1.9261051451
 H          6.3468579807       -2.1396688009       -3.0649286221
 H          8.7070682852       -2.2934093959       -2.4281929085
 H          9.6269559449       -0.8547166094       -0.6391582430
 H          9.9917784021        0.9712215723        1.3806839216
 H          9.7049859392        2.7152531508        3.1105951734
 H          7.5084415816        3.7154176407        3.5250052865
 H          5.5333451042        3.0356744861        2.2173287622
 H          4.8249737242        3.5591352494       -0.0480118799
 H          2.4645186919        4.2352142866       -0.0510176116
 H          0.3905044990        4.4344073289       -0.9190686631
 H         -2.0003909878        4.8993020365       -0.7320102917
 H         -2.9921743154        6.0016849629        1.1281699004
 H         -4.6548746626        7.7929504452        1.4427585938
 H         -7.0534328484        7.3384756664        1.2508332074
 H         -7.8716090366        5.0567651752        0.7610722416
 H         -8.0988857089        2.3688459739        0.1954132498
 H         -7.6702185886       -0.0141390128       -0.2992284008
 H         -5.3579976191       -0.8604619581       -0.4748824897
 H         -3.4493078395        0.6088288678       -0.1230178454
 H         -2.4736482712        1.5033374624        1.8249080075
 H         -0.0839794448        1.0184631303        1.6250160424
 H         -0.1877662512        1.0699722678       -1.5427379273
 H         -1.9863189109       -0.5718766623       -1.7858434979
 H         -6.0942442528       -2.8164148778       -1.6784627711
 H         -7.1672538988       -5.0409949065       -1.5310955902
 H         -5.8794357827       -7.0274507178       -0.9248919276
 H         -3.4655921270       -6.8848566775       -0.4158418518
 H          0.0317486382       -4.4303395154       -2.0199310473
 H          1.9253041220       -5.9840404560       -1.7200178157
  95
       -147.84370078
 C         -0.2382199668       -6.0697773264        2.3232828260
 C         -0.6131320287       -4.7449072142        2.4836412384
 C         -1.2770175255       -4.0809355153        1.4708378622
 C         -1.5592288809       -4.7422614364        0.2767358073
 N         -2.2614492275       -4.0860378433       -0.7429184529
 C         -2.0417265201       -2.8129878411       -1.2787285863
 C         -0.8901253336       -2.0168150155       -1.1183014904
 C          0.3466658784       -2.4546564201       -0.5610114085
 C          1.3705868667       -1.5826762432       -0.3483345941
 C          1.2352437667       -0.1941030528       -0.6186630917
 C          2.1988069520        0.7716872451       -0.1980938881
 C          3.5703248272        0.4675937526       -0.1449190502
 C          4.5131489098        1.4428510276        0.0820198940
 N          5.8789106996        1.1351208394        0.0655278337
 C          6.5398832126        0.4299224661       -0.9194114151
 C          6.0517254950       -0.1068213111       -2.1030312659
 C          6.9474917582       -0.7448015409       -2.9398705346
 C          8.2993470752       -0.8450071118       -2.6186853517
 C          8.7958349745       -0.2915062595       -1.4542318000
 C          7.9158323505        0.3555322036       -0.5982416990
 C          8.0814066791        1.0498771275        0.6488808613
 C          9.1737696529        1.2955545557        1.4685637804
 C          8.9751910497        1.9949891759        2.6435409705
 C          7.7047196409        2.4319986852        3.0118539105
 C          6.6014388321        2.1972161064        2.2135326161
 C          6.7990471622        1.5190682902        1.0183943572
 C          4.1132454768        2.7838500816        0.2845437471
 C          2.7760477976        3.0937969402        0.3078711446
 C          1.7955083198        2.1149237438        0.1348786139
 C          0.4037257372        2.4104071496        0.3917223889
 C         -0.1895800326        3.6214009459       -0.0014978206
 C         -1.5453745393        3.8186264986        0.1130626509
 C         -2.3616739681        2.8229008773        0.6614603501
 N         -3.7472230038        2.9510701713        0.6796612719
 C         -4.4768765286        4.0551415553        1.0708034276
 C         -4.0404001917        5.2613070889        1.6009902062
 C         -4.9960176772        6.2006279396        1.9414993987
 C         -6.3549866046        5.9481298245        1.7730011797
 C         -6.7972790911        4.7371388788        1.2733625194
 C         -5.8572262964        3.7798244652        0.9228480912
 C         -5.9540999892        2.4406707952        0.4061948090
 C         -7.0210584746        1.6347927300        0.0351346623
 C         -6.7546354293        0.3770343139       -0.4740761736
 C         -5.4454743082       -0.0711184627       -0.6323131365
 C         -4.3674967710        0.7128807957       -0.2662369547
 C         -4.6297417457        1.9649498566        0.2729330602
 C         -1.7669972750        1.6623183811        1.1664154077
 C         -0.4186300695        1.4598450070        1.0297329259
 C          0.0631324768        0.1988974831       -1.3356360830
 C         -0.9402055025       -0.6763159441       -1.5941293286
 N         -3.0700825417       -2.4256294203       -2.0439877809
 C         -3.9567043254       -3.4354930926       -2.0399368498
 C         -5.1994820907       -3.5465730604       -2.6747026755
 C         -5.9243585145       -4.6985094012       -2.4692245388
 C         -5.4519341549       -5.7290810807       -1.6506845554
 C         -4.2240391071       -5.6473659795       -1.0131381276
 C         -3.4782828926       -4.5038049959       -1.2250039179
 C         -1.1844296030       -6.0727669115        0.1167492229
 C         -0.5263475277       -6.7300277356        1.1402438911
 H          0.2768262612       -6.5859929421        3.1190295375
 H         -0.3944418748       -4.2286424291        3.4065365102
 H         -1.5781300230       -3.0505506910        1.5887007032
 H          0.4826219966       -3.4967618055       -0.3190508824
 H          2.2823164449       -1.9447257835        0.1040084660
 H          3.8961161222       -0.5433455575       -0.3346081582
 H          5.0099618280       -0.0183703342       -2.3706539712
 H          6.5912435071       -1.1717092741       -3.8655607845
 H          8.9667482175       -1.3544410312       -3.2975190589
 H          9.8464901228       -0.3531243554       -1.2142355822
 H         10.1554125423        0.9414374873        1.1927162116
 H          9.8123522345        2.1990446286        3.2939668661
 H          7.5780534632        2.9611117339        3.9447696487
 H          5.6172687272        2.5214623209        2.5160068152
 H          4.8637963732        3.5473445322        0.4151039764
 H          2.4723776097        4.1085622506        0.5215749153
 H          0.4161392461        4.3763673669       -0.4803144098
 H         -1.9969607364        4.7189956944       -0.2755659649
 H         -2.9907725703        5.4574608935        1.7579718380
 H         -4.6813278700        7.1486046796        2.3516463160
 H         -7.0710212953        6.7076908042        2.0483422801
 H         -7.8517103788        4.5353506635        1.1614331484
 H         -8.0356182623        1.9896530449        0.1357696506
 H         -7.5712494388       -0.2657369287       -0.7670738877
 H         -5.2597523706       -1.0448762016       -1.0580320016
 H         -3.3600461046        0.3592690705       -0.4169102396
 H         -2.3814854605        0.9319263703        1.6702323518
 H          0.0321664718        0.5718987107        1.4451056792
 H          0.0097798654        1.2045989305       -1.7240193646
 H         -1.8127003336       -0.3821520537       -2.1553177248
 H         -5.5625446296       -2.7461866623       -3.2993796861
 H         -6.8867707814       -4.8138670684       -2.9459037571
 H         -6.0599604050       -6.6102906663       -1.5108485478
 H         -3.8724193251       -6.4426833938       -0.3730882972
 H         -1.3976470231       -6.5768983141       -0.8142058110
 H         -0.2331673258       -7.7612022683        1.0106008218
  95
       -147.84362757
 C         -0.9534794442       -4.3932139846        3.5111206097
 C         -1.2587164891       -3.1247438992        3.0427906373
 C         -1.7332197130       -2.9522419493        1.7577209245
 C         -1.8933076798       -4.0569027083        0.9229908411
 N         -2.3893127547       -3.8799896316       -0.3743086376
 C         -2.0437059835       -2.8698465345       -1.2693737974
 C         -0.8854302918       -2.0497274494       -1.1444541500
 C          0.2856418025       -2.4528235336       -0.4581945849
 C          1.3453814192       -1.6036424125       -0.3159143609
 C          1.2751849127       -0.2629519718       -0.7663761466
 C          2.2589782005        0.7185496051       -0.4266114795
 C          3.6185335896        0.4046702880       -0.3566601173
 C          4.5755940953        1.3949771641       -0.2907886659
 N          5.9290588842        1.0653596110       -0.2296132537
 C          6.9393249393        1.6173232769       -0.9903196099
 C          6.8618836099        2.5348216495       -2.0293994960
 C          8.0392462973        2.9066666050       -2.6506626076
 C          9.2660815336        2.3733968839       -2.2622914524
 C          9.3461924678        1.4360612338       -1.2495847290
 C          8.1778709552        1.0477526897       -0.6105468709
 C          7.8883808352        0.1033096980        0.4338161478
 C          8.6765109737       -0.7362411698        1.2077133542
 C          8.0645511628       -1.5182012869        2.1690295870
 C          6.6879821142       -1.4572585408        2.3730295175
 C          5.8826859511       -0.6284788333        1.6148140841
 C          6.4880642656        0.1415902113        0.6314728793
 C          4.1841221585        2.7615953731       -0.2925466332
 C          2.8569375259        3.0898224182       -0.2688323517
 C          1.8601345484        2.1006788391       -0.2399172521
 C          0.4993117866        2.3958821096        0.0909656907
 C         -0.1535065409        3.5848343033       -0.3042849151
 C         -1.5057458074        3.7436367745       -0.1363215469
 C         -2.2710661743        2.7416507626        0.4798931513
 N         -3.6571822008        2.8024960337        0.5406774969
 C         -4.4413252087        3.8815311517        0.8957181414
 C         -4.0653412133        5.1466960282        1.3255191355
 C         -5.0665483436        6.0433799819        1.6495923346
 C         -6.4116531682        5.6930761741        1.5633275241
 C         -6.7922035996        4.4242351694        1.1675071625
 C         -5.8057429943        3.5079363818        0.8356975653
 C         -5.8359923950        2.1325988619        0.4158654336
 C         -6.8616714781        1.2340487761        0.1583209044
 C         -6.5351773367       -0.0355020391       -0.2813181002
 C         -5.2078800228       -0.4049661337       -0.4869119013
 C         -4.1699879417        0.4717999168       -0.2331434950
 C         -4.4900415430        1.7364910682        0.2435708469
 C         -1.6117651886        1.6245020272        1.0129608802
 C         -0.2714936307        1.4535943781        0.8182162742
 C          0.1423028696        0.0926719558       -1.5508257240
 C         -0.8801346135       -0.7813045498       -1.7647170189
 N         -2.8925805181       -2.7910966878       -2.2814611661
 C         -3.8118079113       -3.7668913310       -2.0846556897
 C         -4.9186702900       -4.1283802050       -2.8537604904
 C         -5.7062515074       -5.1636871455       -2.3995247770
 C         -5.4258203524       -5.8299427193       -1.2040545961
 C         -4.3338029192       -5.4921548265       -0.4238056333
 C         -3.5223851429       -4.4704458548       -0.8824363597
 C         -1.5869434094       -5.3299076383        1.3926480924
 C         -1.1209511664       -5.4918649880        2.6849003846
 H         -0.5874192009       -4.5243587417        4.5180008160
 H         -1.1347814675       -2.2660695147        3.6861072496
 H         -1.9843276642       -1.9692870151        1.3886379396
 H          0.3515693372       -3.4556045276       -0.0636212160
 H          2.2225477458       -1.9363650693        0.2199071126
 H          3.9332032737       -0.6230657583       -0.4588160696
 H          5.9129340451        2.9338283540       -2.3534701533
 H          8.0061698636        3.6212082763       -3.4595074625
 H         10.1639329935        2.6900979833       -2.7712681334
 H         10.2949740560        1.0082809890       -0.9632657407
 H          9.7455721598       -0.7707403247        1.0629013481
 H          8.6595481476       -2.1803901386        2.7798018498
 H          6.2400905238       -2.0681936714        3.1426444257
 H          4.8197560910       -0.5724469593        1.7929667462
 H          4.9447377358        3.5242224601       -0.2344084772
 H          2.5700426345        4.1275830305       -0.1827956130
 H          0.4049712080        4.3430515912       -0.8321783347
 H         -2.0013774886        4.6158671349       -0.5353191189
 H         -3.0260018765        5.4211266666        1.4202643412
 H         -4.7991676373        7.0352722983        1.9819562546
 H         -7.1647493240        6.4220079769        1.8218750407
 H         -7.8342834849        4.1467607451        1.1211194317
 H         -7.8920602527        1.5269709646        0.2911268937
 H         -7.3179117716       -0.7503229925       -0.4859833392
 H         -4.9840115200       -1.3904607201       -0.8657522781
 H         -3.1488427050        0.1828195867       -0.4261230935
 H         -2.1770116583        0.9109064102        1.5933225633
 H          0.2253571468        0.6065527866        1.2645487050
 H          0.1235559735        1.0646924238       -2.0200086293
 H         -1.7237995967       -0.5184593649       -2.3836984371
 H         -5.1385187251       -3.6036178677       -3.7694388241
 H         -6.5681222210       -5.4684632693       -2.9748688497
 H         -6.0774569421       -6.6280411517       -0.8808879995
 H         -4.1314497636       -6.0028132133        0.5056927026
 H         -1.6996730565       -6.1811366677        0.7380039676
 H         -0.8831631368       -6.4814119954        3.0459022020
  95
       -147.84359892
 C          0.0259098939       -6.4347791247        1.9660843329
 C         -0.3905861071       -5.1577477994        2.3083515795
 C         -1.1270666486       -4.4023736442        1.4165644081
 C         -1.4404581895       -4.9219511564        0.1621355408
 N         -2.2179029043       -4.1791632986       -0.7381879409
 C         -2.0484138990       -2.8681915805       -1.1931061716
 C         -0.9082898369       -2.0519089322       -1.0420176140
 C          0.3472177148       -2.4636557947       -0.5090946642
 C          1.3570654140       -1.5712619489       -0.3136581494
 C          1.1983496692       -0.1862270239       -0.5920486820
 C          2.1606129512        0.7942446676       -0.2090118981
 C          3.5325342744        0.4902497447       -0.1376659676
 C          4.4786318932        1.4715533225        0.0411275907
 N          5.8424871794        1.1577709890        0.0629116652
 C          6.5135929725        0.3702636914       -0.8503083027
 C          6.0428217605       -0.2535372810       -1.9978371234
 C          6.9462990972       -0.9686603910       -2.7607103115
 C          8.2895820248       -1.0601906420       -2.4033659045
 C          8.7701483693       -0.4190433565       -1.2779834921
 C          7.8821027502        0.3062972374       -0.4964263265
 C          8.0326865202        1.0952815888        0.6949643526
 C          9.1130080464        1.3937895205        1.5131245171
 C          8.9012458358        2.1839011977        2.6266139947
 C          7.6287706362        2.6580075321        2.9373155594
 C          6.5374756388        2.3723426762        2.1391996784
 C          6.7491142839        1.6041156627        1.0022049531
 C          4.0834983708        2.8245451465        0.1633499722
 C          2.7479297886        3.1385468554        0.1761664126
 C          1.7626991349        2.1542096843        0.0661545850
 C          0.3788623262        2.4686988922        0.3335473178
 C         -0.2115241966        3.6717086528       -0.0900751713
 C         -1.5623763536        3.8865303771        0.0435996896
 C         -2.3775895420        2.9176491036        0.6403501778
 N         -3.7610876537        3.0607341536        0.6777622656
 C         -4.4733069817        4.1852466093        1.0415023660
 C         -4.0164771363        5.4020327354        1.5285550301
 C         -4.9569342784        6.3629626907        1.8502898836
 C         -6.3206390343        6.1214866055        1.7055730830
 C         -6.7829089089        4.9010710204        1.2486984958
 C         -5.8583946121        3.9220059393        0.9174091459
 C         -5.9765389103        2.5685815575        0.4438095427
 C         -7.0563409356        1.7643705641        0.1080430591
 C         -6.8096557897        0.4884478020       -0.3648978503
 C         -5.5074988599        0.0194466038       -0.5210798696
 C         -4.4169371655        0.8017063702       -0.1903103876
 C         -4.6593624155        2.0730094191        0.3116787117
 C         -1.7846302149        1.7682816074        1.1723838560
 C         -0.4410411449        1.5478075841        1.0185903104
 C          0.0037993775        0.1809582552       -1.2866038589
 C         -0.9931694972       -0.7109211754       -1.5109392539
 N         -3.1213675920       -2.4532353579       -1.8781345024
 C         -3.9895769929       -3.4789546734       -1.8995659637
 C         -5.2609119847       -3.5744019326       -2.4770147040
 C         -5.9497064805       -4.7558390584       -2.3201970985
 C         -5.4134794869       -5.8314005537       -1.6053715131
 C         -4.1565490849       -5.7654045176       -1.0258595949
 C         -3.4487591626       -4.5898995547       -1.1889443732
 C         -1.0265160949       -6.2057131542       -0.1792108880
 C         -0.2949490279       -6.9557560012        0.7234936461
 H          0.5985936753       -7.0225242372        2.6671945400
 H         -0.1466764089       -4.7508762332        3.2783734771
 H         -1.4592473472       -3.4077818486        1.6752023926
 H          0.5102104276       -3.5010422695       -0.2651724632
 H          2.2798294323       -1.9182564689        0.1276360687
 H          3.8565340675       -0.5300049274       -0.2701755009
 H          5.0085972766       -0.1735003161       -2.2955198594
 H          6.6028039175       -1.4650518523       -3.6561390293
 H          8.9630115768       -1.6326521208       -3.0233939858
 H          9.8146162280       -0.4740104523       -1.0109894781
 H         10.0956340678        1.0105470510        1.2833289113
 H          9.7289621801        2.4307278120        3.2743913653
 H          7.4905765928        3.2575711821        3.8248300359
 H          5.5515568845        2.7260588639        2.3998240291
 H          4.8366199331        3.5922199010        0.2447424688
 H          2.4487407084        4.1643618170        0.3364044458
 H          0.3909904130        4.4038695700       -0.6066818448
 H         -2.0130650384        4.7779552601       -0.3662085760
 H         -2.9627649500        5.5900785389        1.6675447561
 H         -4.6264350947        7.3194507346        2.2268866946
 H         -7.0244312622        6.8978364535        1.9651727111
 H         -7.8408823862        4.7088183643        1.1554235954
 H         -8.0656601026        2.1343637582        0.2070477060
 H         -7.6370646977       -0.1524612397       -0.6305932178
 H         -5.3360613732       -0.9698548720       -0.9162424596
 H         -3.4152997119        0.4311979020       -0.3389167220
 H         -2.3965355629        1.0607154509        1.7107198311
 H          0.0092398600        0.6704365509        1.4561404801
 H         -0.0731322950        1.1790768006       -1.6896762477
 H         -1.8831862898       -0.4324721935       -2.0521819048
 H         -5.6727420369       -2.7412972693       -3.0239474938
 H         -6.9330013943       -4.8602677107       -2.7549997561
 H         -5.9943679169       -6.7356292078       -1.5017014579
 H         -3.7527507421       -6.5964977126       -0.4668830162
 H         -1.2695547625       -6.6002807952       -1.1547415575
 H          0.0291697169       -7.9496030274        0.4528865847
