  95
  -147.251189865300       0.334855677008512      !
 C         -0.7295740268       -5.7864571733        2.8656147436
 C         -0.9982357707       -4.4272218149        2.9078411280
 C         -1.6121471277       -3.8045865036        1.8387835831
 C         -1.9507344467       -4.5438355118        0.7067348050
 N         -2.6038343356       -3.9261244773       -0.3682177762
 C         -2.2882219741       -2.7274755765       -1.0132162465
 C         -1.0732323896       -2.0130023643       -0.9208065721
 C          0.1275944437       -2.5015831410       -0.3334179785
 C          1.2257714305       -1.7045613098       -0.2097006846
 C          1.2042325892       -0.3410734660       -0.6062353234
 C          2.2509224535        0.5725144393       -0.2773368486
 C          3.5898193885        0.1555443197       -0.2245094182
 C          4.6207014662        1.0620741031       -0.1219265864
 N          5.9472910678        0.6256968159       -0.0970887196
 C          6.9818762129        1.1373157908       -0.8532833999
 C          6.9577203394        2.1181942776       -1.8354506614
 C          8.1480634290        2.4318143737       -2.4636119602
 C          9.3354860436        1.7806779672       -2.1381181227
 C          9.3600369359        0.7809975730       -1.1842636851
 C          8.1774135785        0.4492162767       -0.5393061308
 C          7.8344576634       -0.5284299092        0.4569369188
 C          8.5674321132       -1.4768540695        1.1558378450
 C          7.9150831489       -2.2640743805        2.0852240211
 C          6.5541748208       -2.1012560833        2.3331071560
 C          5.8035577791       -1.1634758077        1.6497400251
 C          6.4472693867       -0.3878956629        0.6954833777
 C          4.3413880362        2.4481647001       -0.0503345284
 C          3.0383719147        2.8757038047       -0.0319528412
 C          1.9699742581        1.9746904714       -0.0783418582
 C          0.6196047994        2.4122121965        0.1740620197
 C          0.1256328595        3.6374576064       -0.3088311631
 C         -1.2053272310        3.9596547229       -0.2000546468
 C         -2.0976903064        3.0838502287        0.4309653542
 N         -3.4661533811        3.3327741945        0.4447606614
 C         -4.0917195827        4.5266268510        0.7408760809
 C         -3.5455372208        5.7275339516        1.1719788351
 C         -4.4105450835        6.7745394987        1.4302344515
 C         -5.7874386946        6.6333074467        1.2776408934
 C         -6.3397702721        5.4302301077        0.8787116102
 C         -5.4919207036        4.3657608046        0.6120699043
 C         -5.7113230679        3.0025221737        0.2084999612
 C         -6.8480055633        2.2680623322       -0.0982881934
 C         -6.6982678719        0.9534209836       -0.5000584461
 C         -5.4355591334        0.3768562556       -0.6150045840
 C         -4.2899561622        1.0882234317       -0.3114070108
 C         -4.4358447445        2.3996133114        0.1199361173
 C         -1.5974210195        1.9201766760        1.0243351022
 C         -0.2740294193        1.5913344003        0.8952714500
 C          0.0580153720        0.0853986448       -1.3433336536
 C         -1.0213564361       -0.7205979047       -1.5094729686
 N         -3.2824946657       -2.3296685647       -1.8120089934
 C         -4.2481570781       -3.2627939095       -1.7217437844
 C         -5.4966260369       -3.3313098879       -2.3488448133
 C         -6.3079986950       -4.4020777039       -2.0479310742
 C         -5.9146364828       -5.3908660557       -1.1413774597
 C         -4.6832603369       -5.3486000250       -0.5078239501
 C         -3.8518425714       -4.2885412906       -0.8154872219
 C         -1.6825225218       -5.9085605325        0.6653605796
 C         -1.0739253992       -6.5232288406        1.7444740235
 H         -0.2536519561       -6.2698511686        3.7051527706
 H         -0.7356390752       -3.8507039683        3.7824031948
 H         -1.8306287678       -2.7473118930        1.8646640360
 H          0.1787836182       -3.5245565256        0.0043231564
 H          2.1101480946       -2.1016511402        0.2671306837
 H          3.8246316091       -0.8888715785       -0.3610251387
 H          6.0380928953        2.6106473266       -2.1118476292
 H          8.1560214140        3.1942542249       -3.2282520523
 H         10.2454067426        2.0558096599       -2.6497734403
 H         10.2768075519        0.2631238501       -0.9467965362
 H          9.6258011086       -1.5908632357        0.9773606274
 H          8.4662148435       -3.0107944228        2.6367906034
 H          6.0752954752       -2.7191624848        3.0780913938
 H          4.7539512627       -1.0305863991        1.8626252107
 H          5.1556929244        3.1469732293        0.0581095579
 H          2.8307525333        3.9276443390        0.0997597993
 H          0.7863292684        4.2975702251       -0.8506033680
 H         -1.5836137344        4.8625658844       -0.6552614875
 H         -2.4818203038        5.8395644070        1.3163860498
 H         -4.0095394704        7.7205231054        1.7622697009
 H         -6.4305226980        7.4748837529        1.4864559287
 H         -7.4085939584        5.3166965454        0.7799825783
 H         -7.8260776842        2.7200989558       -0.0311413709
 H         -7.5709094930        0.3649771786       -0.7412911078
 H         -5.3401604781       -0.6421877564       -0.9566084492
 H         -3.3190534769        0.6338739911       -0.4274796125
 H         -2.2651413899        1.2888508164        1.5904152877
 H          0.1048201989        0.7060883900        1.3818041126
 H          0.0813008109        1.0540088209       -1.8189386156
 H         -1.8769958511       -0.4028173527       -2.0836053220
 H         -5.7985347533       -2.5623484325       -3.0418708221
 H         -7.2770488038       -4.4840612139       -2.5178660347
 H         -6.5880720118       -6.2077051990       -0.9291714302
 H         -4.3921884460       -6.1103134585        0.2000727871
 H         -1.9387803260       -6.4741652943       -0.2181504632
 H         -0.8638751082       -7.5817883763        1.7068797668
  95
  -147.251060791100       0.292105188352968      !
 C          0.4534324855       -7.0128205937        0.0235610013
 C         -0.6298189054       -6.9609386812        0.8852085326
 C         -1.6091122224       -5.9990937884        0.7177917375
 C         -1.5067230682       -5.0801634095       -0.3225321456
 N         -2.5153764233       -4.1269876175       -0.5142343071
 C         -2.3876108817       -2.7591458380       -0.7619713398
 C         -1.2144825847       -1.9835271635       -0.5958271366
 C         -0.0706966387       -2.3893943133        0.1433589194
 C          1.0090466528       -1.5687318260        0.2802100235
 C          1.0272699162       -0.2550796430       -0.2559994099
 C          2.1062479916        0.6500943132       -0.0215502962
 C          3.4274925365        0.1891752957        0.1033644607
 C          4.4936109543        1.0575833077        0.1175869686
 N          5.8067104589        0.5804512666        0.1912826185
 C          6.3516000417       -0.4292463977       -0.5757754958
 C          5.7795131745       -1.1710055179       -1.6006406044
 C          6.5680006267       -2.1127721729       -2.2339215327
 C          7.8974076852       -2.3136025272       -1.8693967008
 C          8.4807865139       -1.5602180869       -0.8689483907
 C          7.7092314710       -0.6076796502       -0.2186987011
 C          7.9859578543        0.3446325559        0.8211143784
 C          9.1135085045        0.6338278580        1.5763735280
 C          9.0292005197        1.6204848090        2.5399859608
 C          7.8349358047        2.3011970639        2.7660099441
 C          6.6983248512        2.0287939467        2.0288327629
 C          6.7844956358        1.0589396560        1.0389805795
 C          4.2735986402        2.4533011965        0.0062894504
 C          2.9912990220        2.9334935037       -0.0383735952
 C          1.8848450690        2.0781274415        0.0259334881
 C          0.5611259315        2.5948304945        0.2512852460
 C          0.1069041746        3.7958111682       -0.3277405433
 C         -1.2079613209        4.1795798778       -0.2302914297
 C         -2.1240227578        3.3963474577        0.4846919198
 N         -3.4842485445        3.6806986182        0.4831721297
 C         -4.0903944885        4.9047565343        0.6769892000
 C         -3.5231774800        6.1342669215        0.9817786007
 C         -4.3722025074        7.2109254089        1.1596381723
 C         -5.7533631458        7.0720770760        1.0505279511
 C         -6.3261165784        5.8436585309        0.7757646918
 C         -5.4950728245        4.7493393768        0.5912789597
 C         -5.7375189455        3.3564997943        0.3222399462
 C         -6.8864902755        2.6078025636        0.1113523171
 C         -6.7562712499        1.2584069833       -0.1650365138
 C         -5.5015397443        0.6604720682       -0.2524971583
 C         -4.3441028807        1.3865317330       -0.0449322850
 C         -4.4702170251        2.7334189219        0.2650430850
 C         -1.6575316511        2.2717685124        1.1763227090
 C         -0.3523722033        1.8794457233        1.0589732679
 C         -0.1108334754        0.1310437358       -1.0262624740
 C         -1.1790378328       -0.6943393683       -1.1857310775
 N         -3.5525770399       -2.2171539195       -1.1182826657
 C         -4.4632582731       -3.2118848131       -1.0980531149
 C         -5.8294033266       -3.1933201556       -1.3949923422
 C         -6.5217709077       -4.3807321300       -1.3137184270
 C         -5.8920235043       -5.5765463196       -0.9578595864
 C         -4.5407549879       -5.6239956140       -0.6591287883
 C         -3.8392245959       -4.4341992061       -0.7172143073
 C         -0.4208250201       -5.1379213437       -1.1943918127
 C          0.5553495034       -6.0979839165       -1.0129055542
 H          1.2166953619       -7.7637918936        0.1592635437
 H         -0.7112502655       -7.6697258668        1.6959151205
 H         -2.4465239221       -5.9421021581        1.3973979131
 H         -0.0714112903       -3.3428213975        0.6478411801
 H          1.8404406213       -1.8974888640        0.8867660174
 H          3.6154096639       -0.8725888880        0.1431927287
 H          4.7568727333       -1.0101150343       -1.9055033135
 H          6.1440974272       -2.7036549345       -3.0323082071
 H          8.4793878888       -3.0619837526       -2.3860264271
 H          9.5163336085       -1.7022397564       -0.5992653591
 H         10.0337070154        0.0931329505        1.4146536163
 H          9.8957793326        1.8630760208        3.1365033441
 H          7.7944987670        3.0546341218        3.5385992783
 H          5.7716791261        2.5459134879        2.2261668950
 H          5.1199452109        3.1199925193       -0.0439092220
 H          2.8282656652        4.0013722829       -0.0585526605
 H          0.7828532713        4.3787681745       -0.9352429414
 H         -1.5584066436        5.0532861524       -0.7590990788
 H         -2.4555618200        6.2467492699        1.0929028135
 H         -3.9550307983        8.1788656901        1.3940496881
 H         -6.3836334615        7.9366417505        1.1948494962
 H         -7.3979915957        5.7337954174        0.7110866903
 H         -7.8592838919        3.0739405916        0.1552844442
 H         -7.6405623040        0.6603505317       -0.3282310147
 H         -5.4113178143       -0.3871290712       -0.4917491650
 H         -3.3818056429        0.9097998029       -0.1385116027
 H         -2.3377982514        1.7232508165        1.8095177508
 H          0.0005232749        1.0288839292        1.6206154446
 H         -0.0874763161        1.0757059939       -1.5476891290
 H         -2.0228571100       -0.4023432432       -1.7910644206
 H         -6.3129187857       -2.2757764525       -1.6903079582
 H         -7.5782649808       -4.3965236496       -1.5381454687
 H         -6.4725687356       -6.4860819240       -0.9191566947
 H         -4.0573061490       -6.5545053437       -0.4015360737
 H         -0.3518252464       -4.4245607454       -2.0021285773
 H          1.3964281958       -6.1377321447       -1.6888545947
  95
  -147.250374434400       0.141290047520530      !
 C         -0.7801125562       -6.0154384848        2.3457435642
 C         -1.0370451325       -4.6619936225        2.4997803931
 C         -1.6367152445       -3.9461715366        1.4822502723
 C         -1.9726930697       -4.5849032599        0.2897673051
 N         -2.6112120591       -3.8734426136       -0.7347105515
 C         -2.2783555940       -2.6269767218       -1.2746700219
 C         -1.0614288462       -1.9349328282       -1.1134935539
 C          0.1302189115       -2.4779633146       -0.5504452917
 C          1.2265043295       -1.6989212576       -0.3377323344
 C          1.2151004426       -0.3049445876       -0.6138296931
 C          2.2589338040        0.5737241395       -0.1937861857
 C          3.5980797262        0.1499505884       -0.1349145115
 C          4.6226626910        1.0390841051        0.0913963920
 N          5.9559595963        0.6119098332        0.0805969898
 C          6.5549858291       -0.1529345823       -0.8994414405
 C          6.0248367263       -0.6493459924       -2.0826005302
 C          6.8632367060       -1.3673558813       -2.9140229301
 C          8.2000091236       -1.5852014711       -2.5879912158
 C          8.7399920786       -1.0729128279       -1.4240349210
 C          7.9180374016       -0.3471931546       -0.5734445914
 C          8.1405933716        0.3349440243        0.6715462204
 C          9.2479581237        0.4865876033        1.4938854958
 C          9.1084476051        1.2056483054        2.6655092276
 C          7.8804451877        1.7546295438        3.0279440442
 C          6.7631042494        1.6148899257        2.2268882670
 C          6.9035874495        0.9170354884        1.0350188843
 C          4.3421361801        2.4109746033        0.2874536987
 C          3.0374672384        2.8378631033        0.3051742218
 C          1.9748378073        1.9486794515        0.1326983008
 C          0.6138308608        2.3669404579        0.3838073353
 C          0.1309376215        3.6239600704       -0.0160121958
 C         -1.2024781366        3.9405854057        0.0933110763
 C         -2.1051276621        3.0230809933        0.6428234003
 N         -3.4739948151        3.2731510900        0.6559548823
 C         -4.1044596539        4.4389297089        1.0404472385
 C         -3.5647503193        5.6040192001        1.5674436511
 C         -4.4346935705        6.6254337888        1.9011889536
 C         -5.8101465148        6.4932118569        1.7291713607
 C         -6.3561655307        5.3239549406        1.2327219645
 C         -5.5032854079        4.2859502458        0.8889891359
 C         -5.7165030034        2.9584658264        0.3771580589
 C         -6.8493531596        2.2484156613        0.0056681069
 C         -6.6935294126        0.9699637601       -0.4978324830
 C         -5.4285927561        0.4073307963       -0.6500234537
 C         -4.2866838354        1.0945944331       -0.2833970921
 C         -4.4389366739        2.3671335544        0.2500979154
 C         -1.6167473937        1.8166137830        1.1541875504
 C         -0.2911279660        1.4953259467        1.0227381380
 C          0.0843916417        0.1870534717       -1.3361731602
 C         -0.9915414886       -0.5972148027       -1.5946215586
 N         -3.2662269259       -2.1534891232       -2.0448024870
 C         -4.2385651018       -3.0811058337       -2.0398080740
 C         -5.4844173530       -3.0846385284       -2.6782457568
 C         -6.3087824620       -4.1672238885       -2.4707474850
 C         -5.9316222412       -5.2321062721       -1.6467049233
 C         -4.7031956533       -5.2564981237       -1.0054232306
 C         -3.8587530945       -4.1841250461       -1.2192079706
 C         -1.7163715401       -5.9439499447        0.1361235383
 C         -1.1219211456       -6.6525310859        1.1642999043
 H         -0.3150118966       -6.5718344675        3.1451614116
 H         -0.7763483946       -4.1632622969        3.4214064942
 H         -1.8460146154       -2.8927498483        1.5951652475
 H          0.1729104871       -3.5269988482       -0.3040422172
 H          2.1013639161       -2.1381889163        0.1190056268
 H          3.8338904956       -0.8865758614       -0.3196478714
 H          4.9957472712       -0.4703661776       -2.3540008708
 H          6.4734183253       -1.7649465973       -3.8392411316
 H          8.8218212320       -2.1543565072       -3.2626575420
 H          9.7803891676       -1.2260633775       -1.1803342416
 H         10.1953079476        0.0460547329        1.2226427210
 H          9.9584329974        1.3376681508        3.3179101136
 H          7.7982410362        2.2966909233        3.9584001968
 H          5.8105208670        2.0260014469        2.5248635358
 H          5.1567836035        3.1057531916        0.4175639848
 H          2.8239580097        3.8763462906        0.5139803494
 H          0.8023658606        4.3205253260       -0.4957167216
 H         -1.5716478928        4.8757027709       -0.3002574534
 H         -2.5023702365        5.7073811431        1.7271388600
 H         -4.0387383439        7.5436036463        2.3087348278
 H         -6.4571243653        7.3141497920        1.9992303349
 H         -7.4239610274        5.2155899867        1.1180841765
 H         -7.8289082406        2.6918746147        0.1015889423
 H         -7.5628421036        0.4006006192       -0.7910594096
 H         -5.3283236029       -0.5807636193       -1.0713889092
 H         -3.3139520932        0.6528010902       -0.4293838590
 H         -2.2948141236        1.1454037507        1.6587688968
 H          0.0782732135        0.5727625457        1.4430002119
 H          0.1211983546        1.1919325731       -1.7285845940
 H         -1.8329927488       -0.2294786286       -2.1598134939
 H         -5.7735412644       -2.2578988343       -3.3071837529
 H         -7.2762100366       -4.1991204828       -2.9501578887
 H         -6.6154949852       -6.0556107568       -1.5055001166
 H         -4.4250675436       -6.0771152029       -0.3611698565
 H         -1.9705217651       -6.4311116890       -0.7935906718
 H         -0.9205580033       -7.7060875015        1.0395816729
  95
  -147.250055176300       0.100783794877825      !
 C         -0.5501619705       -6.3967805711        2.0127248798
 C         -0.8530024041       -5.0853440993        2.3441563885
 C         -1.5169081305       -4.2744902781        1.4441434283
 C         -1.8711585390       -4.7737389817        0.1923350515
 N         -2.5769552049       -3.9718596185       -0.7162776336
 C         -2.2906194195       -2.6845118019       -1.1800355254
 C         -1.0831668041       -1.9712506102       -1.0305542722
 C          0.1292751854       -2.4884942000       -0.4899203365
 C          1.2135653033       -1.6875548284       -0.2971364000
 C          1.1789944374       -0.2960484929       -0.5861497098
 C          2.2231008657        0.5982492454       -0.2065896210
 C          3.5624827088        0.1745408204       -0.1278576640
 C          4.5911988463        1.0695563543        0.0473988770
 N          5.9218345093        0.6364391382        0.0766110307
 C          6.5234164958       -0.2142600256       -0.8283373022
 C          6.0028420542       -0.8025803309       -1.9730892625
 C          6.8418217419       -1.6006181008       -2.7273416494
 C          8.1705989538       -1.8080076943       -2.3642679473
 C          8.7025352807       -1.2034440242       -1.2417502681
 C          7.8797730370       -0.3964542764       -0.4688301951
 C          8.0959101690        0.3850730237        0.7173752458
 C          9.1958601802        0.5929375607        1.5374300899
 C          9.0514198532        1.4070776372        2.6443589227
 C          7.8249634228        1.9943051012        2.9468055164
 C          6.7151577903        1.8003556365        2.1466597772
 C          6.8614864561        1.0078471574        1.0160674997
 C          4.3170509750        2.4531004898        0.1583234308
 C          3.0145020732        2.8841932434        0.1638159854
 C          1.9463233001        1.9901397759        0.0572129104
 C          0.5949438349        2.4279131376        0.3170872520
 C          0.1147348273        3.6752330483       -0.1174666493
 C         -1.2121979419        4.0098035234        0.0095408904
 C         -2.1118674721        3.1214290728        0.6102073384
 N         -3.4773696182        3.3867099634        0.6413515018
 C         -4.0883434250        4.5725728874        0.9942418924
 C         -3.5270806056        5.7477810727        1.4741919425
 C         -4.3797491376        6.7905969441        1.7854004963
 C         -5.7590213002        6.6697103777        1.6372821218
 C         -6.3261184397        5.4915965148        1.1875148641
 C         -5.4909061332        4.4320565099        0.8668232171
 C         -5.7269575768        3.0908686409        0.4025958670
 C         -6.8726794493        2.3828969105        0.0685834612
 C         -6.7384754799        1.0866112374       -0.3941673446
 C         -5.4824847573        0.5030075727       -0.5420243167
 C         -4.3279738027        1.1881246286       -0.2128090725
 C         -4.4584344833        2.4796510344        0.2790385195
 C         -1.6246842366        1.9281299511        1.1527899964
 C         -0.3054236633        1.5884206382        1.0056779263
 C          0.0238287975        0.1701930505       -1.2878572627
 C         -1.0474973130       -0.6315922570       -1.5094941526
 N         -3.3204662095       -2.1813811153       -1.8721028700
 C         -4.2760253566       -3.1263440678       -1.8893864009
 C         -5.5490076329       -3.1132236179       -2.4709307813
 C         -6.3402039959       -4.2278262046       -2.3081650297
 C         -5.9035651928       -5.3412088067       -1.5835456308
 C         -4.6475453234       -5.3823732051       -0.9997792772
 C         -3.8379339913       -4.2754082740       -1.1686972130
 C         -1.5714608728       -6.0916464605       -0.1381365738
 C         -0.9120112923       -6.8966726550        0.7727361939
 H         -0.0339686986       -7.0276071125        2.7202338437
 H         -0.5770525510       -4.6943515728        3.3121209627
 H         -1.7605148699       -3.2524719726        1.6943129771
 H          0.1989996475       -3.5343658812       -0.2378761167
 H          2.1005929956       -2.1115365630        0.1501449200
 H          3.7952741019       -0.8713624188       -0.2517480186
 H          4.9807034089       -0.6335486987       -2.2752516481
 H          6.4585177093       -2.0713971606       -3.6204436063
 H          8.7926227699       -2.4425038213       -2.9775830091
 H          9.7371929333       -1.3486434542       -0.9704184407
 H         10.1414011790        0.1224853656        1.3141328431
 H          9.8957140414        1.5845417676        3.2934560280
 H          7.7376340468        2.6104318810        3.8294251860
 H          5.7636260135        2.2419225675        2.4009861557
 H          5.1349366974        3.1516806943        0.2369999698
 H          2.8068295542        3.9336476561        0.3154874366
 H          0.7813294420        4.3472583404       -0.6370814537
 H         -1.5808939578        4.9345078907       -0.4084142605
 H         -2.4612952295        5.8428486782        1.6157985179
 H         -3.9670254675        7.7168865300        2.1563061738
 H         -6.3921070827        7.5072554270        1.8885891766
 H         -7.3966637065        5.3930610635        1.0916359496
 H         -7.8455732451        2.8415279395        0.1610891686
 H         -7.6185548699        0.5194805649       -0.6583396306
 H         -5.3980939144       -0.5005416344       -0.9293599191
 H         -3.3626221631        0.7292859497       -0.3549401201
 H         -2.2985225679        1.2815975422        1.6939197316
 H          0.0640241311        0.6779600657        1.4512707196
 H          0.0368467394        1.1681317357       -1.6984365817
 H         -1.9076643252       -0.2795385903       -2.0561002819
 H         -5.8837339563       -2.2510841353       -3.0254365517
 H         -7.3275202236       -4.2480745412       -2.7459141054
 H         -6.5625658949       -6.1896532966       -1.4755255878
 H         -4.3206786205       -6.2417072138       -0.4332750530
 H         -1.8454363450       -6.4705024231       -1.1116955625
 H         -0.6763314471       -7.9173257824        0.5105620952
  95
  -147.249744768400       7.256665647114861E-002 !
 C          0.4854519558       -7.0062456837        0.3646769316
 C         -0.5648875599       -6.9177894690        1.2631827314
 C         -1.5532467028       -5.9660638206        1.0897504716
 C         -1.4934766358       -5.0952702113        0.0057434917
 N         -2.5135672581       -4.1557888056       -0.1936969237
 C         -2.3994067113       -2.8053052530       -0.5229035173
 C         -1.2179714541       -2.0231170464       -0.4424646129
 C         -0.0628066834       -2.3790415534        0.3012185329
 C          1.0223435670       -1.5544789658        0.3574358881
 C          1.0317822460       -0.2850806813       -0.2745922666
 C          2.1079286440        0.6401444630       -0.1120749379
 C          3.4310396256        0.1935546851        0.0157597094
 C          4.4947636288        1.0626031357       -0.0765485634
 N          5.8050950977        0.5946727041        0.0396331745
 C          6.8509887599        0.8904115216       -0.8103008580
 C          6.8516862827        1.6270201354       -1.9870159239
 C          8.0469210990        1.7507326708       -2.6699015887
 C          9.2145453950        1.1484496224       -2.2070703659
 C          9.2138169769        0.3890753109       -1.0523519722
 C          8.0260985400        0.2515997008       -0.3486900712
 C          7.6589770604       -0.4635808977        0.8428494623
 C          8.3668072515       -1.2479139639        1.7422751132
 C          7.6961339853       -1.7792820619        2.8273403478
 C          6.3418087210       -1.5230345254        3.0287220549
 C          5.6158544475       -0.7455447840        2.1463831683
 C          6.2780492652       -0.2289723829        1.0413773043
 C          4.2646452253        2.4444794651       -0.2986599759
 C          2.9806592757        2.9170236257       -0.3451710589
 C          1.8777063755        2.0680379792       -0.1783530117
 C          0.5603211613        2.5954793546        0.0391322453
 C          0.0918112229        3.7582125128       -0.6065405416
 C         -1.2205003496        4.1469347172       -0.5080818593
 C         -2.1230084196        3.4102281000        0.2723542843
 N         -3.4812485085        3.7019125809        0.2832211091
 C         -4.0738930737        4.9411829027        0.4106980539
 C         -3.4906541722        6.1817724243        0.6281253605
 C         -4.3270100671        7.2755600338        0.7536378419
 C         -5.7112671299        7.1434875240        0.6780969438
 C         -6.2994222438        5.9057941650        0.4918760779
 C         -5.4812811279        4.7939268342        0.3618337625
 C         -5.7399989905        3.3891132707        0.1873302542
 C         -6.8991958928        2.6395353857        0.0471294841
 C         -6.7858307961        1.2737245308       -0.1416440120
 C         -5.5379960327        0.6594002233       -0.2119765741
 C         -4.3703650403        1.3861360305       -0.0756894714
 C         -4.4790676720        2.7515707948        0.1468663658
 C         -1.6429603612        2.3291986514        1.0219017370
 C         -0.3396874413        1.9311727751        0.9061681169
 C         -0.1162479202        0.0451797640       -1.0536516381
 C         -1.1916601858       -0.7844575616       -1.1281631061
 N         -3.5744015642       -2.2842787197       -0.8667509065
 C         -4.4829336419       -3.2784010458       -0.7605259042
 C         -5.8577293815       -3.2776791292       -1.0101561554
 C         -6.5443450072       -4.4588848993       -0.8365700514
 C         -5.8996301871       -5.6318430481       -0.4357348637
 C         -4.5387535584       -5.6613175243       -0.1836955983
 C         -3.8429716616       -4.4758738305       -0.3341287104
 C         -0.4400960366       -5.1890876167       -0.9019655252
 C          0.5457203410       -6.1381553633       -0.7144115702
 H          1.2554476213       -7.7496212419        0.5045745054
 H         -0.6137600457       -7.5900640150        2.1069099843
 H         -2.3648913701       -5.8804482777        1.7970619892
 H         -0.0569366142       -3.2937145531        0.8734255529
 H          1.8645507310       -1.8412425919        0.9704352955
 H          3.6282464395       -0.8649080085        0.0940881650
 H          5.9466829988        2.0768326017       -2.3657532872
 H          8.0743684392        2.3214842469       -3.5861669649
 H         10.1288266787        1.2692795703       -2.7684191764
 H         10.1149980273       -0.0928377870       -0.7047063020
 H          9.4205489854       -1.4315770316        1.5970776609
 H          8.2281249692       -2.3939266727        3.5378496207
 H          5.8488435580       -1.9376076223        3.8955130345
 H          4.5715897084       -0.5355694161        2.3202990965
 H          5.1061100210        3.1170020109       -0.3531262329
 H          2.8142963108        3.9810197501       -0.4279254904
 H          0.7548127348        4.3027012922       -1.2619662596
 H         -1.5820739724        4.9862353258       -1.0830892503
 H         -2.4201994167        6.2904064857        0.7133135964
 H         -3.8973485666        8.2521308356        0.9198486307
 H         -6.3314120014        8.0215891225        0.7789350649
 H         -7.3733961131        5.8027478347        0.4540343951
 H         -7.8667687815        3.1172101526        0.0782948005
 H         -7.6778775584        0.6746389134       -0.2485291401
 H         -5.4608276071       -0.4027130796       -0.3812248599
 H         -3.4145118186        0.8940895191       -0.1557672086
 H         -2.3106133912        1.8206355466        1.7002484020
 H          0.0239963649        1.1193696717        1.5160032111
 H         -0.0994093658        0.9474676033       -1.6455857331
 H         -2.0467459183       -0.5336791369       -1.7361911305
 H         -6.3543371855       -2.3794895928       -1.3411805921
 H         -7.6081765677       -4.4875850122       -1.0225532306
 H         -6.4763646485       -6.5379575448       -0.3248023340
 H         -4.0438155578       -6.5753520078        0.1084864357
 H         -0.4036782530       -4.5124351063       -1.7427555917
 H          1.3616015480       -6.2056708517       -1.4184576263
  95
  -147.249539500900       5.839863576901588E-002 !
 C         -1.3377129600       -4.3791509175        3.4016145255
 C         -1.5332941335       -3.0790275995        2.9623579527
 C         -1.9839430310       -2.8375242846        1.6798190179
 C         -2.2304798826       -3.9051498584        0.8183823826
 N         -2.7021133155       -3.6571711595       -0.4763661174
 C         -2.2680673655       -2.6587600912       -1.3457073676
 C         -1.0462388178       -1.9413422889       -1.1965446808
 C          0.0829604258       -2.4567242564       -0.5152672119
 C          1.2089147380       -1.7025337807       -0.3484622154
 C          1.2534633349       -0.3505010246       -0.7671710364
 C          2.3135664767        0.5372355323       -0.4001019125
 C          3.6417742503        0.1094061470       -0.3320548532
 C          4.6776376393        1.0145488715       -0.2386993173
 N          5.9985175447        0.5717540899       -0.1798252643
 C          7.0558861146        1.0550837824       -0.9230208420
 C          7.0615170698        1.9998816570       -1.9402782830
 C          8.2695349214        2.2865618746       -2.5476716856
 C          9.4452622622        1.6438044459       -2.1670648613
 C          9.4407982983        0.6796375984       -1.1766340694
 C          8.2403094925        0.3753855201       -0.5518258058
 C          7.8667527731       -0.5657473361        0.4685640871
 C          8.5774341079       -1.4860212210        1.2254918762
 C          7.8965856494       -2.2364216786        2.1654013741
 C          6.5286730545       -2.0655600009        2.3651355852
 C          5.7998925164       -1.1549502601        1.6235580878
 C          6.4733251929       -0.4153318383        0.6613199766
 C          4.4014678626        2.4087434733       -0.2095383228
 C          3.1061440508        2.8459747706       -0.1834725504
 C          2.0301978511        1.9430930247       -0.1822048130
 C          0.6967329246        2.3430528374        0.1500157760
 C          0.1477136709        3.5912657039       -0.2195036797
 C         -1.1875775300        3.8584299840       -0.0533663633
 C         -2.0374928674        2.9097014973        0.5356752006
 N         -3.4140563016        3.0846107686        0.5921940564
 C         -4.1076657746        4.2167451366        0.9695911597
 C         -3.6301463890        5.4357127672        1.4309242021
 C         -4.5550729993        6.4050270250        1.7721307440
 C         -5.9241480666        6.1703487934        1.6720260385
 C         -6.4067309808        4.9473057748        1.2445574544
 C         -5.4980873512        3.9598624202        0.8950893176
 C         -5.6403265352        2.6020417356        0.4425207131
 C         -6.7357540114        1.7985191052        0.1594499630
 C         -6.5135590764        0.5167686537       -0.3089359274
 C         -5.2204545452        0.0426976454       -0.5178091862
 C         -4.1146497670        0.8235869718       -0.2389817563
 C         -4.3310572467        2.0990917457        0.2663794555
 C         -1.4768661142        1.7292590642        1.0447072193
 C         -0.1543469869        1.4516602729        0.8514591820
 C          0.1589602893        0.1166946027       -1.5475828315
 C         -0.9314539134       -0.6636379825       -1.7864148817
 N         -3.1012527593       -2.4857842006       -2.3591134050
 C         -4.0998029466       -3.3857678252       -2.1893677696
 C         -5.2282494058       -3.6355160399       -2.9714004694
 C         -6.1021403891       -4.6117953431       -2.5451751890
 C         -5.8854990960       -5.3268977064       -1.3647590606
 C         -4.7738891240       -5.0997824756       -0.5722105631
 C         -3.8773517934       -4.1389371049       -1.0030552708
 C         -2.0341615246       -5.2099160754        1.2588625445
 C         -1.5911585021       -5.4403718810        2.5487979631
 H         -0.9899884437       -4.5638970714        4.4065838376
 H         -1.3421252806       -2.2489698818        3.6264336312
 H         -2.1499886328       -1.8286798759        1.3332073149
 H          0.0626658651       -3.4704569408       -0.1444054039
 H          2.0520177387       -2.1197552642        0.1828882774
 H          3.8702916989       -0.9383415882       -0.4573492609
 H          6.1511198586        2.4841804086       -2.2586570740
 H          8.3010570059        3.0200817053       -3.3394095626
 H         10.3694673244        1.8962574702       -2.6646656709
 H         10.3488591089        0.1675701142       -0.8966814682
 H          9.6407592724       -1.6062514312        1.0842940734
 H          8.4305864887       -2.9600652900        2.7626795938
 H          6.0267411086       -2.6547947921        3.1181444828
 H          4.7442694611       -1.0145595938        1.7986245193
 H          5.2226412722        3.1036437053       -0.1301401209
 H          2.9062378763        3.9017674645       -0.0739399228
 H          0.7706524593        4.3123460327       -0.7269016886
 H         -1.6063393827        4.7780789491       -0.4335241191
 H         -2.5721432883        5.6201307595        1.5364444806
 H         -4.2079644784        7.3630948156        2.1291046481
 H         -6.6154172831        6.9533616634        1.9447528745
 H         -7.4680128214        4.7589538664        1.1872968359
 H         -7.7389268595        2.1732516821        0.2949549392
 H         -7.3518978202       -0.1252338072       -0.5337715159
 H         -5.0772168478       -0.9489199223       -0.9190750318
 H         -3.1199936175        0.4549596485       -0.4345869506
 H         -2.1031493105        1.0519710084        1.6055924185
 H          0.2674416077        0.5558970065        1.2795425192
 H          0.2241598759        1.0975879194       -1.9935706678
 H         -1.7464921252       -0.3168837192       -2.4024265580
 H         -5.3980162238       -3.0729719363       -3.8752251288
 H         -6.9829030484       -4.8300256169       -3.1311471167
 H         -6.6033503654       -6.0751465112       -1.0633601833
 H         -4.6204646949       -5.6471382565        0.3456938642
 H         -2.2134746848       -6.0332271162        0.5836859123
 H         -1.4388865920       -6.4544826887        2.8871192218
