45
 energy: -70.446277823973 gnorm: 0.000109003896 xtb: 6.7.1 (edcfbbe)
C            7.54460563540959        1.72680573318318        0.37583795360169
O            7.07112810561937        0.50817888322701       -0.15624525813714
C            5.73091290821050        0.27529174952223       -0.16832510260931
C            5.34482946341113       -0.96747078932213       -0.71176882458381
C            4.02655743739343       -1.31967919086703       -0.77710096258094
C            3.01650123533232       -0.45119258199644       -0.29773986878281
C            1.66014443357197       -0.79599074868630       -0.34086262050759
C            0.68030574806639        0.07093238982298        0.14551211702848
C           -0.72330687942078       -0.21729184941638        0.12161965023162
N           -1.64215885852869        0.72751934138471        0.03668661863115
C           -2.86546413848979        0.11716485323699       -0.01397042485551
C           -4.05183824723662        0.89694571346109       -0.07754296643534
C           -3.93332856246560        2.27690279754723       -0.36309378613344
C           -5.04457851173600        3.08058455024067       -0.44286957902268
C           -6.31370067676736        2.55033145041938       -0.22866754722638
C           -6.44810675816651        1.20085557458340        0.08025076699361
C           -5.34391920405335        0.38301279965234        0.15693720945260
C           -2.67175123649404       -1.30863928742521        0.02767508163690
C           -3.49061504843047       -2.41528266249009       -0.06870781449206
C           -2.91704444007268       -3.70884554838819        0.05943521926526
C           -1.57046371344290       -3.83510860171159        0.31622192613467
C           -0.75347913164518       -2.71156161878777        0.37899389131523
N           -1.30568930087406       -1.47832385874209        0.15824405320109
C            1.07824213506552        1.33886127397333        0.63521243188553
C            2.39352151542660        1.68973086764014        0.69157484655852
C            3.40709950590403        0.80628770219500        0.24116220107434
C            4.76511861880399        1.14922541220594        0.29762967472347
H            7.27034863081137        1.83365153896405        1.42957836865084
H            8.62871759917379        1.68327888103874        0.28525606752276
H            7.16538737994296        2.58234906459354       -0.19088353708576
H            6.12237949295880       -1.62359191888127       -1.07138853421935
H            3.73967277889492       -2.27405842155542       -1.19374271892083
H            1.38577307460004       -1.72245983532687       -0.82255600144691
H           -2.94338923690838        2.67201998885477       -0.52857123170194
H           -4.93360215030950        4.13078673896277       -0.67238440898489
H           -7.18652486782038        3.18279736070928       -0.29107670724535
H           -7.43009868777764        0.79098679002937        0.27047246168295
H           -5.46764182809347       -0.64857371683693        0.44196901048590
H           -4.54370315057106       -2.31261143148096       -0.25472516301105
H           -3.55114614912581       -4.57651271368204       -0.01812947186274
H           -1.12333325266984       -4.80392600081355        0.47178099989907
H            0.28553407655882       -2.75338771013931        0.64930334527172
H            0.30411957168628        2.00805371630518        0.97694741845350
H            2.68352480097773        2.65282000268722        1.08593427533780
H            5.03043491979830        2.11002258756062        0.70997036145515
