45
 energy: -70.530036019514 gnorm: 0.000049294799 xtb: 6.7.1 (edcfbbe)
C            7.58087461561572        1.67178658345052        0.45262083874704
O            7.08632750483841        0.52942121862788       -0.21191563676416
C            5.74144735713632        0.30827053617797       -0.21224536155295
C            5.33212525563630       -0.85579986473764       -0.90516315866591
C            4.01483163846358       -1.19281099432653       -0.98017331447467
C            3.02397625754999       -0.39191046261715       -0.36798990383034
C            1.65713997605728       -0.71847019355102       -0.42946882170766
C            0.70915104771251        0.07077981764780        0.18530310875411
C           -0.71397149205118       -0.21599101923713        0.13679710450249
N           -1.63583984302224        0.72468833020055        0.05429579822434
C           -2.84660574259877        0.12695582238440        0.00897250120925
C           -4.06514999084346        0.91295382071464       -0.08945959015087
C           -4.01676490660648        2.16830339037543       -0.69816465148052
C           -5.15467791520207        2.94383659025733       -0.80202137152954
C           -6.36111510480069        2.48305159090109       -0.29808905419850
C           -6.41607578368263        1.24666536839666        0.32426354718802
C           -5.27892873963791        0.46756079180167        0.43334074718356
C           -2.67275940332262       -1.26074124368383        0.06106677543356
C           -3.51075300164807       -2.38778671019772       -0.01432344759742
C           -2.97298081587560       -3.63587858327110        0.08805856735330
C           -1.57869182171428       -3.78801598399440        0.29734729977754
C           -0.76637143628214       -2.70390408982329        0.32608629158240
N           -1.29102588624913       -1.45631060048457        0.15642588138361
C            1.12234409129869        1.24823076802069        0.85106641204715
C            2.44091593117461        1.58863460510538        0.91788363983785
C            3.43256992105164        0.77746593818981        0.32334605551166
C            4.80117976007787        1.10838620602567        0.38947924381441
H            7.34033880183451        1.64637871846045        1.51978717552661
H            8.66146196379363        1.64067533664988        0.32320055058087
H            7.18652984569744        2.59132457583461        0.00957704281476
H            6.09850748393886       -1.45913933637942       -1.36703105831309
H            3.71145597275402       -2.08355022793837       -1.51139344472098
H            1.36845408174987       -1.58526986879134       -1.00689728707134
H           -3.07077015346389        2.51710939754000       -1.08412468202643
H           -5.10316053661048        3.91233233047243       -1.27908126238460
H           -7.25226173040443        3.08821066024425       -0.38174679259761
H           -7.35038804607235        0.88992933303699        0.73454586500530
H           -5.32686697122219       -0.47761800626457        0.95299432025797
H           -4.56776091798687       -2.24022796078226       -0.16412129029599
H           -3.59747279066759       -4.51277547761590        0.02743646862630
H           -1.15988065285219       -4.77199495966776        0.43112264757031
H            0.29589040735263       -2.76576552450181        0.49886577135432
H            0.36095363529418        1.86771769537040        1.29973433210154
H            2.74479111795204        2.48990881696216        1.43111401230078
H            5.07896412710839        2.00428590420278        0.92254670221702
