45
 energy: -70.528493676731 gnorm: 0.000040238144 xtb: 6.7.1 (edcfbbe)
C            7.93017815191878        0.53190121203733       -0.39772946977151
O            6.86032878432814        1.20427907562414        0.23138102804433
C            5.59006727716804        0.73624321090694        0.05919245493580
C            5.26102752965128       -0.39884056381745       -0.70845574357926
C            3.95741834532838       -0.79634705629905       -0.82370909262002
C            2.91485304545551       -0.09345185908926       -0.18827899620627
C            1.56786870569396       -0.48936889773818       -0.29938332907671
C            0.56763087870624        0.21301717530615        0.33430628697122
C           -0.83636525047572       -0.14522436507512        0.22821549324961
N           -1.80568306745187        0.74507274804202        0.14137368413742
C           -2.97893317288923        0.08350014618937        0.02866058094778
C           -4.23157742111831        0.80867374224443       -0.10124828271983
C           -4.21386590764742        2.09744474231691       -0.63853549594260
C           -5.38323931115402        2.81837980418444       -0.77761693582975
C           -6.59282654682768        2.26829291971465       -0.38232441748249
C           -6.61930483147433        0.99804988965980        0.16965246599460
C           -5.45043943873754        0.27371853076064        0.31509902731659
C           -2.72897640487693       -1.29383548158269        0.04304433936598
C           -3.49639047395514       -2.46488962110133       -0.09261752040645
C           -2.89114484280320       -3.68278686229897       -0.00341931937079
C           -1.49789729826854       -3.76255967894830        0.24844669043597
C           -0.75133941932716       -2.63510234873556        0.33477801306733
N           -1.34256333570399       -1.41531679451073        0.18448800626440
C            0.90162170761833        1.37144379109285        1.07725340988473
C            2.19666827226141        1.77553195724487        1.19933215257142
C            3.24473514148124        1.05446104525262        0.58108936507323
C            4.58803541562425        1.44377429067204        0.68980750277916
H            7.82444621812394        0.54118577044151       -1.48683722731829
H            8.82433390436029        1.08686230282181       -0.11797065739238
H            8.01919361872378       -0.49978629104876       -0.04394324790911
H            6.03303122475773       -0.96123128576926       -1.20941706622890
H            3.71396497180066       -1.66870229571170       -1.41374141636196
H            1.33756014573150       -1.33677429587766       -0.92982788508994
H           -3.26542289778823        2.51485056894308       -0.94126350760092
H           -5.35418186653992        3.81347879367458       -1.19854371091641
H           -7.50884548658412        2.82990412342706       -0.49543121837645
H           -7.55741951560886        0.57109059144650        0.49556037371814
H           -5.48110752769814       -0.69935024746510        0.78139184041758
H           -4.55438813762688       -2.37574025876337       -0.27663062708685
H           -3.46218589080300       -4.59139454739071       -0.10827961030035
H           -1.02787318959405       -4.72501565555578        0.36809352072796
H            0.30701844332115       -2.63945187376977        0.54031169712349
H            0.09695711855911        1.92223512469229        1.53994991596255
H            2.44324835812846        2.65839724628239        1.77121042782440
H            4.85178297620899        2.31338147757334        1.27256550077348
