45
 energy: -70.446278094369 gnorm: 0.000057020437 xtb: 6.7.1 (edcfbbe)
C            7.54637513441238        1.74176980407013       -0.35952998217578
O            7.07142950532462        0.52541976488007        0.17636992601910
C            5.73123274100152        0.29226924407450        0.18573947865179
C            5.34441168131696       -0.94846417905964        0.73330411630762
C            4.02625085461409       -1.30141932433235        0.79577439353707
C            3.01723945400935       -0.43543103140870        0.30985955367709
C            1.66115618676250       -0.78144626192629        0.34936315645744
C            0.68205870166188        0.08317247816058       -0.14229915039202
C           -0.72070429657361       -0.21002109510199       -0.12158166051970
N           -1.64474205580919        0.72905301645788       -0.03245196356220
C           -2.86461427177497        0.11113613404002        0.01615400531794
C           -4.05532562970315        0.88354798863208        0.08653953828365
C           -3.94404397192128        2.26320200729261        0.37681790383673
C           -5.05979491781376        3.05976775435648        0.46451218788200
C           -6.32665740297339        2.52251380437652        0.25419729835696
C           -6.45420293288679        1.17338675075107       -0.05915769812107
C           -5.34539046817841        0.36265748375458       -0.14403979646946
C           -2.66258306026268       -1.31344016341734       -0.03312744255055
C           -3.47432356139386       -2.42584027915889        0.05634220220641
C           -2.89245415093174       -3.71505637626857       -0.07932048491021
C           -1.54505082968766       -3.83146523574144       -0.33645794385292
C           -0.73522808335533       -2.70248778179644       -0.39229327214148
N           -1.29554474936007       -1.47415626052774       -0.16431406440821
C            1.07973321994620        1.35042932930833       -0.63341028851892
C            2.39508104484369        1.70202323944462       -0.68746008908973
C            3.40824337555741        0.82059014102034       -0.23214589294060
C            4.76635850667842        1.16391760478558       -0.28633885998498
H            7.16662312786832        2.59961548121738        0.20333108477186
H            8.63031123795324        1.69801180690286       -0.26692403144812
H            7.27400803368865        1.84477915529236       -1.41412996793121
H            6.12133953712820       -1.60242695140831        1.09817661427798
H            3.73848957717440       -2.25424617030029        1.21536692328726
H            1.38572281183992       -1.70693565325636        0.83244502508667
H           -2.95580501853406        2.66368681510049        0.53940795021157
H           -4.95421481598833        4.10978582239152        0.69742750767677
H           -7.20302505363427        3.14938790659457        0.32298796810941
H           -7.43455129811245        0.75817014993752       -0.24615171755685
H           -5.46426685134960       -0.66864163386261       -0.43202123182802
H           -4.52816463671250       -2.33138985691301        0.24232113429463
H           -3.52111609111370       -4.58714100816641       -0.00736848377164
H           -1.09193116857099       -4.79653892340714       -0.49785266276828
H            0.30424164729878       -2.73558725711152       -0.66218009478530
H            0.30599729227033        2.01824939085421       -0.97879244287901
H            2.68539419744561        2.66425899648758       -1.08371031458778
H            5.03248200066876        2.12323837119118       -0.70161294093224
