  49
  -77.1697442600000       0.155579061665646      !
 C         -5.6655973354        3.3142149268       -0.6329105839
 C         -4.3230798674        3.5649972315       -0.3975202803
 C         -3.4390090892        2.5175392778       -0.2355517433
 C         -3.8836279389        1.1959068742       -0.3022374027
 C         -2.9233822061        0.1231122424       -0.1158351030
 N         -1.6131834781        0.3185001870       -0.3761643463
 C         -0.9707343903       -0.8090566903       -0.1490281789
 C          0.4452217275       -1.0354826148       -0.3866883155
 C          0.8473322997       -2.2069627099       -1.0309840272
 C          2.1760172073       -2.4679594949       -1.2835407535
 C          3.1669078964       -1.5608955442       -0.9029563933
 C          4.5486036531       -1.8056294896       -1.1475772979
 C          5.4947509793       -0.9077146936       -0.7877404685
 C          5.1426200791        0.3176137629       -0.1499976669
 C          6.1021898135        1.2590947215        0.2259954455
 C          5.7304797198        2.4390911459        0.8438444750
 C          4.3992444904        2.7076117139        1.1022630789
 C          3.4055307450        1.7949005768        0.7439778597
 C          2.0244704853        2.0345216109        0.9974580287
 C          1.0752362804        1.1383904894        0.6407317866
 C          1.4141981980       -0.0831384085       -0.0102548741
 C          2.7819255159       -0.3544375906       -0.2669446905
 C          3.7748741577        0.5841064100        0.1088106597
 N         -1.8368678082       -1.7729373779        0.2943858267
 C         -1.6206948975       -3.0348615976        0.7593859579
 C         -2.6591334910       -3.7705797152        1.2242246765
 C         -3.9666657411       -3.2243076792        1.2580802156
 C         -4.1809397141       -1.9473770741        0.8323311371
 C         -3.1082630075       -1.1910735063        0.3300636436
 C         -5.2309601057        0.9539172408       -0.5659156397
 C         -6.1122812055        2.0066130136       -0.7244872437
 H         -6.3590317480        4.1335376690       -0.7541305740
 H         -3.9672714547        4.5837727566       -0.3387415480
 H         -2.3906999931        2.7000708307       -0.0552184762
 H          0.0982137894       -2.9067858873       -1.3753421993
 H          2.4594165898       -3.3780935189       -1.7930425708
 H          4.8217480342       -2.7319932873       -1.6334420362
 H          6.5409881550       -1.1001035831       -0.9794832555
 H          7.1453661839        1.0540943916        0.0305793157
 H          6.4868379737        3.1572696804        1.1260313859
 H          4.1152973199        3.6320696963        1.5846755002
 H          1.7505386379        2.9572488940        1.4893824300
 H          0.0326058442        1.3384965353        0.8280491692
 H         -0.6009895481       -3.3866405557        0.7568837114
 H         -2.4847718561       -4.7692048478        1.5900776553
 H         -4.7777560232       -3.8203177481        1.6448687779
 H         -5.1567437154       -1.4943550604        0.8921097067
 H         -5.5859677745       -0.0591665113       -0.6758366122
 H         -7.1545543313        1.8058295140       -0.9268823138
  49
  -77.1697435400000       0.155460571078376      !
 C         -5.6581178317        3.3323752621        0.5802545813
 C         -6.1089048678        2.0278112273        0.6929256493
 C         -5.2307527125        0.9697442372        0.5517166071
 C         -3.8825469022        1.2035167016        0.2852557209
 C         -2.9231964799        0.1256911971        0.1245765221
 N         -1.6140097436        0.3268458585        0.3855736923
 C         -0.9712573209       -0.8059222635        0.1873894304
 C          0.4455003351       -1.0233799053        0.4298883566
 C          0.8520508755       -2.1721463712        1.1106811689
 C          2.1824392396       -2.4219705279        1.3664833958
 C          3.1699832883       -1.5273715642        0.9498277177
 C          4.5534245544       -1.7622650041        1.1945382337
 C          5.4969793809       -0.8796222268        0.7926995360
 C          5.1403432972        0.3200796750        0.1101855237
 C          6.0974895036        1.2434818646       -0.3136291609
 C          5.7210747215        2.3998199405       -0.9719632008
 C          4.3873099110        2.6622395072       -1.2239065451
 C          3.3960060929        1.7660142290       -0.8202140171
 C          2.0126598427        1.9986701802       -1.0678483241
 C          1.0661844694        1.1164461557       -0.6710362291
 C          1.4107988968       -0.0826533884        0.0173778998
 C          2.7802661941       -0.3443413818        0.2740075294
 C          3.7703252997        0.5792148610       -0.1441690368
 N         -1.8354827353       -1.7792416560       -0.2375342594
 C         -1.6176436458       -3.0531751262       -0.6678125002
 C         -2.6541063120       -3.7994566154       -1.1202023625
 C         -3.9606551084       -3.2527274592       -1.1763854022
 C         -4.1770669390       -1.9662225469       -0.7816268037
 C         -3.1067294125       -1.1982739033       -0.2921093102
 C         -3.4342179553        2.5224259729        0.1955074269
 C         -4.3149869553        3.5751350491        0.3399946391
 H         -6.3487999851        4.1557252608        0.6892507745
 H         -7.1519171016        1.8335704018        0.8992499291
 H         -5.5886327196       -0.0405029766        0.6801632302
 H          0.1053720103       -2.8619942102        1.4794635010
 H          2.4700824188       -3.3143755648        1.9041131590
 H          4.8303585192       -2.6701163774        1.7121449294
 H          6.5449421693       -1.0666074532        0.9808616651
 H          7.1421219152        1.0452241359       -0.1200073341
 H          6.4758552103        3.1037079579       -1.2921762363
 H          4.0997366597        3.5679038185       -1.7386459557
 H          1.7345935340        2.9049510812       -1.5872120058
 H          0.0218281467        1.3115659604       -0.8543964654
 H         -0.5981121002       -3.4051039916       -0.6499241075
 H         -2.4792702421       -4.8077931093       -1.4583556959
 H         -4.7694477883       -3.8571734759       -1.5546296547
 H         -5.1516236131       -1.5134117987       -0.8599457285
 H         -2.3850894345        2.6986701555        0.0155673110
 H         -3.9557838029        4.5914035533        0.2643930847
  49
  -77.1697273500000       0.152819878442517      !
 C         -5.6491972151        3.3262545988        0.6192289098
 C         -5.9249790472        2.3412214405       -0.3143621731
 C         -5.0453261994        1.2919652705       -0.5041834143
 C         -3.8754968554        1.2085612059        0.2492574899
 C         -2.9203911154        0.1274324205        0.0828743640
 N         -1.6173525112        0.3087769571        0.3853053843
 C         -0.9728729362       -0.8150924238        0.1443199265
 C          0.4432309071       -1.0435336683        0.3798375119
 C          0.8486740826       -2.2369566133        0.9804080995
 C          2.1787595799       -2.5081930131        1.2144684727
 C          3.1681216123       -1.5908045413        0.8560931285
 C          4.5517210453       -1.8500137272        1.0733509185
 C          5.4972283420       -0.9440372900        0.7328583925
 C          5.1421675079        0.3055348910        0.1457983012
 C          6.1013892907        1.2544867899       -0.2118203700
 C          5.7268051258        2.4592258288       -0.7779597704
 C          4.3929001765        2.7461105175       -1.0004650102
 C          3.3995510027        1.8259579810       -0.6605025064
 C          2.0157347906        2.0838690225       -0.8786729611
 C          1.0667382176        1.1772385523       -0.5478013849
 C          1.4099897379       -0.0748679068        0.0400087182
 C          2.7796683338       -0.3596009209        0.2717139627
 C          3.7719628033        0.5890508221       -0.0799987307
 N         -1.8351783506       -1.7689406361       -0.3269129357
 C         -1.6224711078       -3.0300720407       -0.7968929837
 C         -2.6701453025       -3.7796529317       -1.2161974356
 C         -3.9888425089       -3.2611849486       -1.1656360318
 C         -4.1984300684       -1.9784852786       -0.7559779649
 C         -3.1057816664       -1.1855121100       -0.3648369131
 C         -3.5963928993        2.2171249000        1.1727596890
 C         -4.4767573157        3.2643976609        1.3556251222
 H         -6.3403821064        4.1435424441        0.7645786656
 H         -6.8286330317        2.3954129376       -0.9047896630
 H         -5.2533493250        0.5524038721       -1.2623844936
 H          0.1014289764       -2.9481364490        1.3046298348
 H          2.4648076181       -3.4369807646        1.6874040507
 H          4.8270095769       -2.7951549374        1.5203208773
 H          6.5453012372       -1.1488748248        0.9004262307
 H          7.1461113226        1.0370374522       -0.0408420083
 H          6.4831198766        3.1820921328       -1.0481213232
 H          4.1065842883        3.6901548976       -1.4416676252
 H          1.7381323398        3.0304655742       -1.3204482515
 H          0.0219595845        1.3942165041       -0.7034495052
 H         -0.6000107890       -3.3724840926       -0.8275931437
 H         -2.4991917892       -4.7769363993       -1.5874466607
 H         -4.8139434562       -3.8869023443       -1.4662387468
 H         -5.1896178936       -1.5579285551       -0.7141389298
 H         -2.6781181652        2.1574969323        1.7361855408
 H         -4.2512188727        4.0373349526        2.0762205437
  49
  -77.1697269000000       0.152747124822635      !
 C         -5.6316585940        3.3379304169       -0.5937779473
 C         -4.4488027503        3.2940335829       -1.3147415250
 C         -3.5721144924        2.2411516955       -1.1468372698
 C         -3.8662774558        1.2086148335       -0.2549165590
 C         -2.9151049938        0.1217235185       -0.1036208862
 N         -1.6057453239        0.3114773686       -0.3699244448
 C         -0.9676253330       -0.8214264884       -0.1541034849
 C          0.4516754595       -1.0420147576       -0.3756806090
 C          0.8669086508       -2.2169108284       -1.0055925688
 C          2.1995907488       -2.4749868954       -1.2393283261
 C          3.1819753565       -1.5607922793       -0.8546260285
 C          4.5675016796       -1.8038504183       -1.0782862939
 C          5.5059587684       -0.8989170547       -0.7162955249
 C          5.1412165192        0.3327754526       -0.0982015876
 C          6.0929580720        1.2811523898        0.2801161466
 C          5.7093343852        2.4683459300        0.8764451010
 C          4.3736149525        2.7373797634        1.1101492421
 C          3.3874436832        1.8171978852        0.7498327299
 C          2.0019954191        2.0573425031        0.9772683317
 C          1.0596997574        1.1531448158        0.6212352789
 C          1.4118787427       -0.0789217927       -0.0024814847
 C          2.7839473467       -0.3482236900       -0.2385787998
 C          3.7690790862        0.5986706666        0.1373432434
 N         -1.8412778817       -1.7897412795        0.2639759954
 C         -1.6423062543       -3.0677121429        0.6928927373
 C         -2.7015310061       -3.8305469416        1.0558879707
 C         -4.0180936041       -3.3082301059        0.9908261100
 C         -4.2154082181       -2.0101236896        0.6260001741
 C         -3.1119613759       -1.2058903304        0.2926400600
 C         -5.0470356712        1.2729050917        0.4832376568
 C         -5.9221241626        2.3288183882        0.3093701452
 H         -6.3196056842        4.1600422600       -0.7270124707
 H         -4.2120264759        4.0855719282       -2.0109961766
 H         -2.6456345073        2.1950563594       -1.6982789844
 H          0.1255690273       -2.9223342235       -1.3548605462
 H          2.4929315000       -3.3894181024       -1.7352573219
 H          4.8498308457       -2.7351884478       -1.5491412701
 H          6.5555231618       -1.0910914692       -0.8894575802
 H          7.1390319064        1.0775370210        0.1003308091
 H          6.4599744972        3.1914924657        1.1615429775
 H          4.0803184660        3.6674499086        1.5758051686
 H          1.7174858086        2.9886078477        1.4464081613
 H          0.0135643829        1.3580208664        0.7835175308
 H         -0.6215425924       -3.4133832073        0.7383699206
 H         -2.5412905682       -4.8416597540        1.3930424842
 H         -4.8513271461       -3.9435373336        1.2453125654
 H         -5.2043125586       -1.5848575675        0.5758428459
 H         -5.2673011230        0.5124724502        1.2171551925
 H         -6.8340895370        2.3687887740        0.8880574799
  49
  -77.1688961200000       6.341222490495856E-002 !
 C         -6.7306960574        2.5576530847        0.2981225407
 C         -5.7085241100        2.7870288692        1.2055370515
 C         -4.5358225896        2.0634611450        1.1275947197
 C         -4.3647255922        1.0921160331        0.1399285483
 C         -3.1168170082        0.3514536817        0.0961249638
 N         -1.9828374748        0.8785279702        0.6072547010
 C         -1.0037175549        0.0215300415        0.4075801526
 C          0.3680794715        0.2367340574        0.8425780372
 C          0.5667356064        0.6874605040        2.1471773843
 C          1.8336858333        0.8509890858        2.6607656192
 C          2.9601022696        0.5644842729        1.8855207560
 C          4.2825534803        0.6766201915        2.4030242989
 C          5.3635328958        0.4088118222        1.6343156204
 C          5.2194205960        0.0181537742        0.2709839896
 C          6.3202727797       -0.2518519415       -0.5438605729
 C          6.1488927170       -0.6173692780       -1.8663166746
 C          4.8811356161       -0.7171105998       -2.4091922279
 C          3.7516953178       -0.4592422660       -1.6307532670
 C          2.4312471187       -0.5199348489       -2.1621560038
 C          1.3475522228       -0.2884381877       -1.3852552081
 C          1.4763520853        0.0198124941        0.0023551811
 C          2.7816080622        0.1608244328        0.5390151355
 C          3.9150296625       -0.0946880934       -0.2718288478
 N         -1.4696299785       -1.1117252752       -0.2007616219
 C         -0.8568048883       -2.2930411722       -0.4937098272
 C         -1.5734909547       -3.3047955277       -1.0392935380
 C         -2.9620499178       -3.1510161465       -1.2811975026
 C         -3.5846061973       -1.9818233472       -0.9597952958
 C         -2.8393300460       -0.9235112146       -0.4118208519
 C         -5.3888726786        0.8854118459       -0.7829290391
 C         -6.5624379176        1.6109074478       -0.6984193312
 H         -7.6504744487        3.1206609619        0.3609159245
 H         -5.8300978852        3.5337085836        1.9771105028
 H         -3.7297990941        2.2343141613        1.8240159421
 H         -0.3022566990        0.8924507819        2.7536499873
 H          1.9661576905        1.1880966000        3.6787199814
 H          4.3992849250        0.9816355745        3.4334316366
 H          6.3631068650        0.4925744583        2.0369034033
 H          7.3144561946       -0.1688580494       -0.1289281236
 H          7.0130666077       -0.8218974561       -2.4819242179
 H          4.7541465825       -0.9944601200       -3.4459173101
 H          2.3141495376       -0.7471318949       -3.2123361480
 H          0.3603356334       -0.3074760489       -1.8226850355
 H          0.1934484167       -2.3674061780       -0.2585912258
 H         -1.0877671255       -4.2380196680       -1.2729503915
 H         -3.5180842570       -3.9741576602       -1.7007753986
 H         -4.6464738089       -1.8579114982       -1.0943231228
 H         -5.2564677278        0.1779113040       -1.5874880289
 H         -7.3492377762        1.4417657124       -1.4198953011
  49
  -77.1688780300000       6.220988562661280E-002 !
 C         -6.7291953554        2.5437253443        0.4153250216
 C         -5.4990132330        3.1792305833        0.4756294960
 C         -4.3337477019        2.4478005561        0.3664460731
 C         -4.3772895036        1.0632306799        0.1932850819
 C         -3.1258201879        0.3336694902        0.0939079425
 N         -1.9910634177        0.8460473855        0.6192225053
 C         -1.0102143084       -0.0004300868        0.3880215858
 C          0.3559892449        0.1899215536        0.8531853471
 C          0.5366418924        0.5695515848        2.1825797880
 C          1.7969645272        0.7055968424        2.7203864677
 C          2.9334741506        0.4616036901        1.9453104278
 C          4.2491854617        0.5462353488        2.4849132675
 C          5.3400143518        0.3174260982        1.7175681638
 C          5.2136882575       -0.0023617448        0.3341487735
 C          6.3248127771       -0.2345803251       -0.4784000707
 C          6.1703889195       -0.5303914480       -1.8202591332
 C          4.9101223460       -0.5956634740       -2.3851772575
 C          3.7708952647       -0.3748446484       -1.6097618493
 C          2.4575293724       -0.4042845819       -2.1611624574
 C          1.3637536707       -0.2141517921       -1.3872190657
 C          1.4747440820        0.0187174060        0.0166182446
 C          2.7728511533        0.1305986564        0.5768976243
 C          3.9166619052       -0.0829788810       -0.2313903410
 N         -1.4696806532       -1.1016367210       -0.2796973518
 C         -0.8496277366       -2.2601607774       -0.6412734408
 C         -1.5450777703       -3.2153359803       -1.3033510344
 C         -2.9103911336       -3.0116005216       -1.6282348112
 C         -3.5453172613       -1.8753984078       -1.2238465922
 C         -2.8377587649       -0.9037637626       -0.4945311281
 C         -5.6187825556        0.4302909534        0.1564879825
 C         -6.7827612964        1.1685178596        0.2619275356
 H         -7.6418730945        3.1157909149        0.4971614090
 H         -5.4514548770        4.2507066686        0.6072559310
 H         -3.3687049219        2.9277630135        0.4149095450
 H         -0.3407500345        0.7414267670        2.7872674479
 H          1.9159289697        0.9881037113        3.7564135358
 H          4.3523994390        0.7977618560        3.5310713751
 H          6.3342417724        0.3787972140        2.1371319073
 H          7.3135796447       -0.1772272335       -0.0460829482
 H          7.0422237881       -0.7067768379       -2.4335095167
 H          4.7968321158       -0.8178584789       -3.4367145955
 H          2.3542609507       -0.5720393667       -3.2240125744
 H          0.3819663613       -0.2072274406       -1.8379370031
 H          0.1905627511       -2.3588923626       -0.3724256433
 H         -1.0555033693       -4.1317225967       -1.5896928232
 H         -3.4369885424       -3.7674638585       -2.1887249910
 H         -4.5815715461       -1.6993890968       -1.4609852161
 H         -5.6757838542       -0.6445934342        0.0768510273
 H         -7.7392730482        0.6661273749        0.2322163465
  49
  -77.1688320800000       5.925735261319803E-002 !
 C         -6.7026933495        2.5061049218        0.5657334293
 C         -6.7683126929        1.1463804160        0.3117800064
 C         -5.6104539854        0.4034152864        0.1763155674
 C         -4.3635894110        1.0169573105        0.2851310224
 C         -3.1190458639        0.2823497428        0.1437223300
 N         -1.9893723526        0.7186289298        0.7446942132
 C         -1.0134790710       -0.1065465273        0.4328847353
 C          0.3535442810        0.0111286948        0.9236859101
 C          0.5441343071        0.1593042313        2.2959784728
 C          1.8097396686        0.2188371591        2.8369129975
 C          2.9397524230        0.1365077318        2.0198424149
 C          4.2613674472        0.1596863353        2.5518188686
 C          5.3455270109        0.1008985169        1.7443457343
 C          5.2063238475        0.0257572795        0.3274914156
 C          6.3102743754       -0.0195240858       -0.5256060176
 C          6.1425682521       -0.0802106950       -1.8968831189
 C          4.8755430016       -0.0944427108       -2.4501254537
 C          3.7431315942       -0.0540672519       -1.6352745167
 C          2.4222356414       -0.0394138816       -2.1690302500
 C          1.3362443573       -0.0140502095       -1.3620874674
 C          1.4638928958       -0.0048760911        0.0595008160
 C          2.7670925095        0.0409433261        0.6166122285
 C          3.9031257283        0.0015792044       -0.2289746241
 N         -1.4695642797       -1.1158338233       -0.3678109611
 C         -0.8469605734       -2.2210906646       -0.8656070074
 C         -1.5380060403       -3.0844401354       -1.6474629394
 C         -2.9006158248       -2.8386542928       -1.9557031903
 C         -3.5362746564       -1.7563622035       -1.4247026462
 C         -2.8325339439       -0.8820415786       -0.5778021369
 C         -4.3080113361        2.3839416070        0.5615630719
 C         -5.4673612739        3.1201875174        0.6985937006
 H         -7.6106054424        3.0826575683        0.6679721427
 H         -7.7296077398        0.6598070839        0.2255328042
 H         -5.6760651888       -0.6620722209        0.0159046299
 H         -0.3272209197        0.2132863701        2.9309182806
 H          1.9375617916        0.3186575154        3.9050959351
 H          4.3745623837        0.2256410841        3.6247484168
 H          6.3442711705        0.1164531866        2.1573649498
 H          7.3039868357       -0.0031658375       -0.1012337688
 H          7.0088100467       -0.1124028054       -2.5415029768
 H          4.7512988296       -0.1342081706       -3.5228161347
 H          2.3064655356       -0.0376235710       -3.2436314608
 H          0.3471532168        0.0300575482       -1.7942277731
 H          0.1914872339       -2.3522799329       -0.6034016818
 H         -1.0473253752       -3.9588983117       -2.0424491116
 H         -3.4238978164       -3.5200184983       -2.6073897376
 H         -4.5696042252       -1.5479733604       -1.6482320358
 H         -3.3390539468        2.8471736823        0.6649502924
 H         -5.4109722122        4.1789769037        0.9075373122
  49
  -77.1688617200000       6.114540780839551E-002 !
 C         -6.7768528043        2.4905890816        0.2469923318
 C         -6.7957341640        1.1060163573        0.2695370224
 C         -5.6149605022        0.3897599555        0.2111905980
 C         -4.3922433944        1.0532201214        0.1200106673
 C         -3.1274253643        0.3416126189        0.0682264575
 N         -1.9925305941        0.9168945164        0.5219242829
 C         -1.0042117216        0.0617047907        0.3619490855
 C          0.3622027398        0.3076796535        0.7982983467
 C          0.5413588361        0.8349184738        2.0769558636
 C          1.8005545836        1.0253992173        2.6001885576
 C          2.9380611299        0.6887975664        1.8619968053
 C          4.2522177345        0.8223184388        2.3952889430
 C          5.3441492647        0.5021121378        1.6629974191
 C          5.2205516951        0.0342820881        0.3221522132
 C          6.3330448882       -0.2920655116       -0.4554108984
 C          6.1816529041       -0.7316367958       -1.7575764271
 C          4.9229849567       -0.8502765969       -2.3174511618
 C          3.7823942064       -0.5390629161       -1.5757272490
 C          2.4708298435       -0.6200573881       -2.1262516101
 C          1.3754917326       -0.3404303078       -1.3821072721
 C          1.4826904131        0.0426692058       -0.0113091711
 C          2.7797251861        0.2092554128        0.5380870396
 C          3.9250181036       -0.0991791489       -0.2368831520
 N         -1.4595071361       -1.1058325710       -0.1860443981
 C         -0.8342032472       -2.2903453888       -0.4382359035
 C         -1.5292786429       -3.3119011675       -0.9931044993
 C         -2.9003233520       -3.1531280212       -1.3192074290
 C         -3.5408987831       -1.9881919257       -1.0194246332
 C         -2.8323556566       -0.9444246014       -0.3989753962
 C         -4.3824867384        2.4487292921        0.1164485706
 C         -5.5646769868        3.1588958965        0.1781592513
 H         -7.7024798158        3.0456060908        0.2932802619
 H         -7.7374428686        0.5805188738        0.3418054495
 H         -5.6413972303       -0.6878457784        0.2686235139
 H         -0.3372454975        1.0763405906        2.6555657326
 H          1.9179117940        1.4223199185        3.5981573852
 H          4.3533735554        1.1859439658        3.4081779883
 H          6.3372460985        0.6028060114        2.0774446975
 H          7.3204848796       -0.1958533513       -0.0269628159
 H          7.0545510737       -0.9789915312       -2.3444518534
 H          4.8120447258       -1.1858033490       -3.3386374939
 H          2.3702374881       -0.9022787220       -3.1648508346
 H          0.3953342201       -0.3769163914       -1.8349257397
 H          0.2095955341       -2.3556561944       -0.1736598341
 H         -1.0347317252       -4.2484980422       -1.1922770674
 H         -3.4258822547       -3.9646221628       -1.7965574224
 H         -4.5821005933       -1.8431119579       -1.2565549408
 H         -3.4310729812        2.9552056507        0.0674504508
 H         -5.5444524654        4.2392298420        0.1720490994
  49
  -77.1688308400000       5.917964838158546E-002 !
 C         -6.6992584971        2.4141996807        0.8378247237
 C         -6.4871384619        1.8279796293       -0.3987465447
 C         -5.3238426401        1.1244828287       -0.6485247996
 C         -4.3543383856        0.9907671933        0.3442995295
 C         -3.1144693272        0.2686435802        0.1237699066
 N         -2.0006098164        0.5787869846        0.8240978164
 C         -1.0196470743       -0.1849410997        0.3937294284
 C          0.3402090163       -0.1488176688        0.9150567069
 C          0.5107403244       -0.2308746376        2.2956654058
 C          1.7678052632       -0.2587025940        2.8582850700
 C          2.9099315976       -0.1998933448        2.0561912996
 C          4.2234395219       -0.2601823125        2.6049929161
 C          5.3196383208       -0.1783930832        1.8158985146
 C          5.2013149988       -0.0167789036        0.4043993114
 C          6.3178407505        0.0873770320       -0.4268850270
 C          6.1705337126        0.2552712118       -1.7914840436
 C          4.9118792295        0.3255395300       -2.3591842890
 C          3.7674322783        0.2230477597       -1.5668699826
 C          2.4543921587        0.3185608790       -2.1114135143
 C          1.3565576079        0.2050610237       -1.3282989745
 C          1.4632673078       -0.0192438349        0.0771344592
 C          2.7579580598       -0.0618326917        0.6540779511
 C          3.9064790886        0.0449773871       -0.1685826631
 N         -1.4631475030       -1.0462952850       -0.5708649267
 C         -0.8375879595       -2.0683862159       -1.2193777323
 C         -1.5348714102       -2.8370077608       -2.0898579757
 C         -2.9154518225       -2.5988251058       -2.3101321251
 C         -3.5483743400       -1.5895446944       -1.6479135084
 C         -2.8222389651       -0.7762892767       -0.7605021109
 C         -4.5689164247        1.6018114380        1.5805947569
 C         -5.7315491338        2.3046908641        1.8238766249
 H         -7.6099746488        2.9632645469        1.0279699230
 H         -7.2306010430        1.9266622130       -1.1770912751
 H         -5.1542107202        0.7048201119       -1.6286460447
 H         -0.3695502311       -0.2870139202        2.9178633758
 H          1.8796083526       -0.3378408573        3.9300273317
 H          4.3205392670       -0.3727754316        3.6756275216
 H          6.3121544588       -0.2261471691        2.2411996035
 H          7.3051833978        0.0383204580        0.0097518088
 H          7.0465061894        0.3368546346       -2.4188485341
 H          4.8036092112        0.4642353904       -3.4254834417
 H          2.3542630786        0.4971083818       -3.1727780936
 H          0.3736249112        0.3144235638       -1.7627190721
 H          0.2057249834       -2.2216463397       -0.9906671869
 H         -1.0408851781       -3.6449457329       -2.6043198238
 H         -3.4570994516       -3.2351295799       -2.9917278674
 H         -4.6045644121       -1.4145928461       -1.7708024501
 H         -3.8037037116        1.5141980449        2.3360135757
 H         -5.8869121876        2.7717073514        2.7858152668
  49
  -77.1685956600000       4.614143912335042E-002 !
 C         -6.8362744019        2.4515442311        0.0309728012
 C         -5.8052926962        2.8552967836        0.8643953411
 C         -4.5953928451        2.1909166457        0.8443637710
 C         -4.3965302449        1.1046484232       -0.0085687301
 C         -3.1190322771        0.4143548276        0.0190595800
 N         -1.9877405416        1.0516047689        0.3879432143
 C         -0.9892940280        0.1945562287        0.3159548796
 C          0.3822586490        0.5092197664        0.6784750746
 C          0.5841265319        1.2554457174        1.8402022660
 C          1.8506465602        1.5032376029        2.3189254141
 C          2.9740419433        0.9953346239        1.6607152671
 C          4.2923183321        1.1627855299        2.1731722024
 C          5.3682327351        0.6598275447        1.5242287959
 C          5.2241702748       -0.0371558496        0.2891479013
 C          6.3190465428       -0.5635313002       -0.3985891573
 C          6.1482052684       -1.2232016575       -1.6017029086
 C          4.8880005187       -1.3657746000       -2.1524544309
 C          3.7641577401       -0.8614125889       -1.4964188906
 C          2.4528832705       -0.9625573454       -2.0442451576
 C          1.3707282802       -0.5102304428       -1.3686616347
 C          1.4923568797        0.0847033403       -0.0770035676
 C          2.7952535971        0.2951970472        0.4419811892
 C          3.9255432457       -0.1991413389       -0.2548002012
 N         -1.4414904423       -1.0425535999       -0.0584996357
 C         -0.8128306089       -2.2494490151       -0.1332453402
 C         -1.5184825701       -3.3568453107       -0.4661096265
 C         -2.9131628468       -3.2745089476       -0.7067560277
 C         -3.5538369466       -2.0772935020       -0.5890176263
 C         -2.8198801291       -0.9247952712       -0.2598329720
 C         -5.4299768817        0.7230614121       -0.8627724103
 C         -6.6400147735        1.3906812759       -0.8373415666
 H         -7.7854511821        2.9668490871        0.0509997145
 H         -5.9491125502        3.6910077822        1.5341189476
 H         -3.7837274167        2.4961026750        1.4862899962
 H         -0.2844480020        1.6187022939        2.3678531761
 H          1.9844283334        2.0729663168        3.2271434131
 H          4.4097677630        1.6989363921        3.1043947897
 H          6.3639837805        0.7818993435        1.9265219198
 H          7.3082690774       -0.4490533515        0.0212176256
 H          7.0075304340       -1.6247115241       -2.1191570242
 H          4.7625950068       -1.8714324828       -3.0992860786
 H          2.3418620589       -1.4050414928       -3.0241759529
 H          0.3915669699       -0.5687608132       -1.8215329816
 H          0.2410751561       -2.2656465578        0.0953841803
 H         -1.0181154418       -4.3093220175       -0.5284302513
 H         -3.4583188649       -4.1700340184       -0.9588929051
 H         -4.6204220743       -1.9966142955       -0.7189234136
 H         -5.2776321280       -0.0794656390       -1.5687699288
 H         -7.4343988760        1.0843859298       -1.5031800481
  49
  -77.1682512100000       3.204740553272580E-002 !
 C         -6.8671025644        2.3826559989        0.1422470728
 C         -6.7087325106        1.3162719278       -0.7268052647
 C         -5.4937785210        0.6632424083       -0.8196505125
 C         -4.4165700434        1.0629820369       -0.0304818352
 C         -3.1315317124        0.3870158367       -0.0531774525
 N         -2.0068718063        1.0296373028        0.3258654425
 C         -0.9956318523        0.1902151115        0.2287046249
 C          0.3636315038        0.5206564603        0.6200084107
 C          0.5205141151        1.2738611895        1.7851742278
 C          1.7671438607        1.5374388600        2.3042131900
 C          2.9164043022        1.0335661343        1.6886528863
 C          4.2140226812        1.2104742590        2.2478581567
 C          5.3144490489        0.7029632480        1.6451095641
 C          5.2178546121       -0.0066976042        0.4127875900
 C          6.3378709510       -0.5439203311       -0.2244278375
 C          6.2135678059       -1.2152898888       -1.4267038305
 C          4.9765607903       -1.3568543126       -2.0282869561
 C          3.8288636145       -0.8420873094       -1.4236415733
 C          2.5408766899       -0.9400376883       -2.0250035728
 C          1.4329320602       -0.4850548815       -1.3943243214
 C          1.5026155472        0.1075508941       -0.0976385252
 C          2.7848182288        0.3260068271        0.4683523501
 C          3.9416337815       -0.1711923901       -0.1812412088
 N         -1.4319282995       -1.0434165602       -0.1763864960
 C         -0.7876819537       -2.2397928239       -0.2810080881
 C         -1.4768917063       -3.3480072289       -0.6444622423
 C         -2.8718061700       -3.2785283032       -0.8841786429
 C         -3.5293233904       -2.0943476039       -0.7310857705
 C         -2.8133654475       -0.9401687398       -0.3700964918
 C         -4.5790994943        2.1566732531        0.8220959598
 C         -5.7927087694        2.8079625093        0.9075626942
 H         -7.8203876821        2.8853961895        0.2156526751
 H         -7.5377482119        0.9935046333       -1.3406057994
 H         -5.3762558064       -0.1422225637       -1.5283983228
 H         -0.3692764948        1.6282557644        2.2823841445
 H          1.8650112984        2.1134596473        3.2130285294
 H          4.2952485321        1.7564972078        3.1771962787
 H          6.2940091814        0.8308647645        2.0836739428
 H          7.3094861457       -0.4291999837        0.2346104129
 H          7.0914657349       -1.6266090492       -1.9037675386
 H          4.8884334023       -1.8701072880       -2.9752174166
 H          2.4691211633       -1.3828485191       -3.0084631185
 H          0.4726720319       -0.5401915570       -1.8866302369
 H          0.2655208324       -2.2491321584       -0.0496047673
 H         -0.9623207576       -4.2909181961       -0.7316026100
 H         -3.4049819135       -4.1734957554       -1.1624945240
 H         -4.5970379504       -2.0289370207       -0.8581736184
 H         -3.7343665666        2.4757108910        1.4123767903
 H         -5.9063263081        3.6490105364        1.5763656181
