95
 energy: -149.844267144437 gnorm: 0.000100789363 xtb: 6.7.1 (edcfbbe)
O           -6.92299365383739        2.49188859771350        0.99572586398737
C           -6.29769326601814        1.50575529041915        0.59217554693792
C           -4.85502403049772        1.41562365177841        0.53224279253752
C           -4.09280595407821        2.52796382152852        0.93756955968467
C           -2.72998585548690        2.51877962602626        0.79812227993829
C           -2.04732756468153        1.39651024910829        0.30274264240262
C           -0.64039964410031        1.55988854927919       -0.05332562684911
C           -0.16649256892238        1.14272058597035       -1.30276674329187
C            1.14157163807591        1.34466261323244       -1.67469319140818
C            2.04067019712095        1.96993048527474       -0.80249220093441
N            3.37611362011105        2.15472260248284       -1.15375486093109
C            4.04695926692955        1.23080470803104       -1.96036542424222
C            5.02376789274968        1.66320218730065       -2.86043437317678
C            5.70250181922756        0.74907502885742       -3.64218473269843
C            5.42127971133587       -0.60503539728638       -3.54483399847682
C            4.44730575639362       -1.03864575408264       -2.65918033303729
C            3.76368634029547       -0.13334731125542       -1.87180683351583
C            4.06974067974013        3.27747206391156       -0.67662413442828
C            3.45697455562873        4.53076373642416       -0.65720217510259
C            4.14584351005546        5.63099824745517       -0.18382501991029
C            5.44861363900588        5.50004511970312        0.27208490685993
C            6.06099048472056        4.25644258365227        0.25341918742063
C            5.38013130338230        3.14932828876749       -0.21506136195867
C            1.56821752882369        2.40974719372883        0.43860589918269
C            0.25358614447889        2.21604744550356        0.79750162344897
C           -2.77092156731296        0.20135615774731        0.05053889006833
C           -2.14569823001232       -1.04633520985055       -0.23792692380609
C           -0.75810774432062       -1.32411645902725        0.09062854964588
C           -0.21510852449323       -0.91989892238404        1.31996190368897
C            1.07491394424597       -1.23217559645207        1.67008927188053
C            1.89579124092682       -1.95974434764440        0.79631691933147
N            3.21059564947446       -2.26004444790081        1.12555836649399
C            3.97336247974579       -1.40486247607263        1.92793550432625
C            4.90863249136083       -1.93178570929598        2.82144349860454
C            5.67877295186130       -1.08854674330517        3.59818792802242
C            5.53040989542535        0.28663545477686        3.50123682613456
C            4.59915649318495        0.81412346304445        2.62039183238583
C            3.82508020807476       -0.01980206127928        1.83780753905943
C            3.80098041416512       -3.43628869662540        0.63544522497519
C            3.08831379357979       -4.63566244230178        0.63297073581567
C            3.67636654259239       -5.78838421350191        0.14857354464468
C            4.97541717627495       -5.76258483210223       -0.33529161911336
C            5.68695326300775       -4.57270327807174       -0.33212843967634
C            5.10797812300711       -3.41383043164847        0.14830317326174
C            1.35500658377146       -2.38324575285061       -0.42512526082860
C            0.05707933710452       -2.08168359729203       -0.76093907581029
C           -2.92455350792007       -2.11039957102628       -0.73517799168867
C           -4.28667781104405       -2.03101691862885       -0.81471740937447
C           -4.94576540306213       -0.86917024067300       -0.35885582576053
C           -4.19433534624207        0.25190743502111        0.07820380276625
C           -6.35107923639230       -0.77858811056892       -0.32861876921659
N           -7.22259303484372       -1.70822445401138       -0.70085186970210
C           -8.44901229155301       -1.17164856533131       -0.47861185426259
C           -9.71575402147912       -1.71737372853770       -0.69497864649928
C          -10.81170963240385       -0.94503667792594       -0.37749414979098
C          -10.67638383393991        0.34373572613569        0.14483711582591
C           -9.43127178588400        0.90811368875852        0.36890590604335
C           -8.32781464177584        0.14179988434443        0.05304032128717
N           -6.96646970214413        0.37580811674704        0.14140460113004
H           -4.61989177306316        3.39369803195307        1.30990274340482
H           -2.16615902440624        3.41158696402112        1.02626442378325
H           -0.85315031755850        0.68099309368858       -1.99658104335865
H            1.47617680317508        1.03980190844252       -2.65501672815103
H            5.23768630557670        2.71810826470548       -2.94833460228979
H            6.45159917408570        1.09755059809536       -4.33772529969171
H            5.95503188138736       -1.31622530233580       -4.15661779162978
H            4.22641176683363       -2.09210449093604       -2.57308076593018
H            3.00916073927260       -0.47645363838438       -1.18135743924162
H            2.44624064358468        4.63423923838527       -1.02389016747107
H            3.66489204173276        6.59795424954798       -0.17851759817781
H            5.98307958550705        6.36287420440587        0.63967478543022
H            7.07276103420871        4.14591360185721        0.61418238468114
H            5.85142814293770        2.17780508239055       -0.21723272659302
H            2.24612583635092        2.89357146016213        1.12590751349504
H           -0.08250778480332        2.54249467327078        1.77028572877175
H           -0.84281710168621       -0.38705693605893        2.01829671479147
H            1.45629127503342       -0.93998335497548        2.63700946821328
H            5.01831438085353       -3.00254302561249        2.90846211973619
H            6.39467766205149       -1.50821033990108        4.28919545647930
H            6.13505224892095        0.94228086174930        4.10910072983667
H            4.48270049773367        1.88410066074900        2.53389064659514
H            3.10652405120485        0.39537685648841        1.14869469844278
H            2.08099726725182       -4.65659264351981        1.02224333034840
H            3.11956399238996       -6.71354259647938        0.15605505125326
H            5.43037396167435       -6.66584206280774       -0.71243047896697
H            6.69653281793778       -4.54471714818336       -0.71410930342494
H            5.65565123497098       -2.48334473262668        0.13884401919365
H            1.97285055303060       -2.93623899754407       -1.11656632333853
H           -0.32541665165679       -2.39386528243968       -1.72077250107419
H           -2.42961549162297       -3.03342619487478       -0.99841611833320
H           -4.89029197920605       -2.84858984140822       -1.17377972767270
H           -9.81602360101787       -2.71279452035138       -1.09836718286080
H          -11.80434223968217       -1.34170971467498       -0.53452866752566
H          -11.56284038518718        0.91399809808683        0.37966627929206
H           -9.31642939268567        1.90243464172952        0.77183653076493
