95
 energy: -149.844256415559 gnorm: 0.000155509049 xtb: 6.7.1 (edcfbbe)
O           -6.92435120591216        2.46792813386657        1.03042184060348
C           -6.29755188810133        1.48857066956184        0.61276708551922
C           -4.85477677751650        1.39986529518221        0.55533354153207
C           -4.09403302257404        2.50570580230065        0.98085507780155
C           -2.73094104276816        2.49960672834460        0.84416589781968
C           -2.04668600368717        1.38638112754824        0.33091297865900
C           -0.63956969273908        1.55746059045819       -0.02077769244345
C           -0.16472633061400        1.16447989003710       -1.27771385090509
C            1.14296573563534        1.37588542731128       -1.64564112742935
C            2.04096039436301        1.98597830935536       -0.76158769673920
N            3.37605429096090        2.17950566679029       -1.10940136794178
C            4.04811300066640        1.27216449522563       -1.93379014658558
C            5.02425136519660        1.72346325819335       -2.82525962595485
C            5.70468961615474        0.82578622506007       -3.62441344215805
C            5.42578309554911       -0.53041486034257       -3.55319328922884
C            4.45245747448920       -0.98266832355350       -2.67617113291346
C            3.76710048336972       -0.09390330376982       -1.87163206607259
C            4.06954249914901        3.29177368319146       -0.60802356312378
C            3.45651534058049        4.54420437757237       -0.56059240838181
C            4.14515876236186        5.63369318924847       -0.06262326905387
C            5.44797642989843        5.49290850622703        0.39020535385719
C            6.06074220180561        4.25022690520105        0.34347647334505
C            5.38009830815163        3.15375496107417       -0.14968903330153
C            1.56762154911747        2.40113464025945        0.48763995840303
C            0.25319013436117        2.19874643656226        0.84253370100055
C           -2.76895041674006        0.19513997827023        0.05735318010284
C           -2.14229706347210       -1.04684021323511       -0.25139336184241
C           -0.75423715630323       -1.32824356821317        0.07230031237807
C           -0.21232420105228       -0.94615465141122        1.30912966167132
C            1.07817021401855       -1.26283623642450        1.65358549372558
C            1.90042585283082       -1.97221555131757        0.76625814537788
N            3.21562506055352       -2.27669160748852        1.09058526260196
C            3.97671870295721       -1.43335426094695        1.90705940090905
C            4.91275629826746       -1.97269548486704        2.79231118174625
C            5.68207675193850       -1.14048879997237        3.58166008734306
C            5.53187601868865        0.23580933645672        3.50592110831609
C            4.59919143168939        0.77551949154743        2.63405657144173
C            3.82598133533112       -0.04731525540222        1.83898483144832
C            3.80751277277147       -3.44373692985805        0.58129078821503
C            3.09395535795112       -4.64231238527153        0.55184618484428
C            3.68392150775214       -5.78619856059180        0.04923573707650
C            4.98600625784924       -5.75274574269300       -0.42588779417357
C            5.69845287268310       -4.56376650750747       -0.39611842841552
C            5.11731465068037       -3.41349218752511        0.10192772241324
C            1.36088031037225       -2.37323622260218       -0.46323760870404
C            0.06234448907659       -2.06800645371235       -0.79340476777189
C           -2.91954193124090       -2.10368037311784       -0.76615981010051
C           -4.28164985165084       -2.02434253817288       -0.84586432747945
C           -4.94226893237345       -0.87026434813844       -0.37283119378881
C           -4.19245986737242        0.24413394063145        0.08363112222401
C           -6.34768805433568       -0.78083674653393       -0.34430039814347
N           -7.21791717323127       -1.70482619979980       -0.73338793743559
C           -8.44507181032425       -1.17205314522282       -0.50629791960585
C           -9.71117395149783       -1.71431890459771       -0.73492968956760
C          -10.80809055462700       -0.94698180068860       -0.40880196462959
C          -10.67450916381108        0.33355488206543        0.13387764629195
C           -9.43012621922594        0.89432476478745        0.37056582275447
C           -8.32573757988534        0.13295928008606        0.04610396246047
N           -6.96471291001958        0.36582924579261        0.14203682718550
H           -4.62246928296626        3.36478094277666        1.36645715626884
H           -2.16803649210524        3.38874701691038        1.08837267988964
H           -0.85051638958732        0.71444952107109       -1.98004513682452
H            1.47816668064634        1.09046357320723       -2.63158584011502
H            5.23645943627024        2.78020855597595       -2.89262684278923
H            6.45345465391976        1.18893119920954       -4.31275388786765
H            5.96100033891755       -1.22876168626684       -4.17834436277489
H            4.23324589204221       -2.03794411118330       -2.61055979919427
H            3.01307909184713       -0.45162655441868       -1.18807458591140
H            2.44566502451829        4.65568033196069       -0.92463087727456
H            3.66390739744327        6.60012970077051       -0.03539537534489
H            5.98218131106357        6.34732105613557        0.77728655284818
H            7.07261514383359        4.13190539394259        0.70149618193271
H            5.85161658113432        2.18262801427715       -0.17368427819676
H            2.24458036145176        2.87290436869527        1.18416327479889
H           -0.08361993842074        2.50696471176602        1.82099305312134
H           -0.84122576932043       -0.42750514456216        2.01702060596252
H            1.45905931149963       -0.98853349479135        2.62592659823839
H            5.02390845272744       -3.04449996192861        2.86271057806455
H            6.39881623099818       -1.56983203353145        4.26581826129763
H            6.13608422043389        0.88283229948785        4.12336485487011
H            4.48097353106756        1.84653365549353        2.56440186896603
H            3.10625011015197        0.37739983317786        1.15696534655434
H            2.08445112443118       -4.66994925412371        0.93489540405727
H            3.12627219719674       -6.71076927529991        0.03606539574393
H            5.44265967233029       -6.64938473948131       -0.81654456077833
H            6.71031077784856       -4.52946765209034       -0.77142595888877
H            5.66557507313742       -2.48338998129602        0.11236065827107
H            1.97998575856078       -2.91181159083510       -1.16483959884819
H           -0.31976794114028       -2.36298073283663       -1.75881211739368
H           -2.42318881420584       -3.02183236798060       -1.04344179895310
H           -4.88426772023783       -2.83660571515934       -1.21842056571298
H           -9.81025319297842       -2.70334288562136       -1.15405755630456
H          -11.80024297538796       -1.34109596078155       -0.57508668835428
H          -11.56175527244137        0.90004228429648        0.37476539919368
H           -9.31627723347104        1.88233567466107        0.78901413023945
