95
 energy: -149.893668574732 gnorm: 0.000038963774 xtb: 6.7.1 (edcfbbe)
O           -7.26227275876666        1.66757771670703        2.19326011677641
C           -6.64140946147212        1.13032314428695        1.28991331885793
C           -5.18091122755850        1.04926269036161        1.22919313060550
C           -4.43424731781294        1.64327446495855        2.23534717886443
C           -3.05054809083639        1.70187290165164        2.14638211564316
C           -2.37799092669452        1.10382301741542        1.09436997592980
C           -0.97464993870437        1.43935056211763        0.84327454790345
C           -0.63424373394417        1.94466057880966       -0.41356948103185
C            0.64346513326713        2.37358598068630       -0.68475832379115
C            1.64725465563131        2.27310716703461        0.28332416783881
N            2.94882335452662        2.67898486623782        0.01218083441771
C            3.74573792288498        3.19530259063274        1.05237507968827
C            3.21425785558899        4.10634286176813        1.96353718811530
C            4.00313169649614        4.61394796372180        2.97855392916593
C            5.32899909593938        4.22803941558097        3.09526204471130
C            5.86195633443583        3.32492351393397        2.18957865984611
C            5.07810117261567        2.80736532814330        1.17564201820224
C            3.46974469932088        2.64894793743131       -1.28891419044055
C            3.11062796927081        1.64095929881982       -2.18469296960762
C            3.64319778965667        1.61870400057579       -3.45930841616241
C            4.54403847727804        2.59040373881371       -3.86376824029749
C            4.90452895417919        3.59376270721616       -2.97901966177784
C            4.37138921106372        3.62943911104911       -1.70462476631602
C            1.30818350827504        1.76324133536845        1.54092550088458
C            0.01434556043964        1.37939907385628        1.82153854379478
C           -3.10424952935452        0.31349061533297        0.16025390693601
C           -2.46511489345408       -0.53709474164426       -0.78581996343157
C           -1.09598473410111       -1.02127380682983       -0.56776129940062
C           -0.77444023634173       -1.55792827944788        0.68099671418334
C            0.43398236407728       -2.17941210402702        0.89763743403720
C            1.37554727259249       -2.28016109974656       -0.12974461925356
N            2.57091760427595       -2.96650983422830        0.07551195393753
C            2.59960330845322       -4.11658256927018        0.87602983722724
C            1.53269793323742       -5.01522473590725        0.87373396430200
C            1.57458631506822       -6.14698772411867        1.66517651982786
C            2.67872264463170       -6.40792494497313        2.46083353539089
C            3.74487877650158       -5.52294295356373        2.46004251569340
C            3.70857174915137       -4.38399131505478        1.67863101153923
C            3.75193740307751       -2.54253016707772       -0.55346058374250
C            4.61373387595076       -3.47014572360196       -1.13730512135196
C            5.77844655882381       -3.04644327701432       -1.74817659237434
C            6.09655849139809       -1.69825294359247       -1.79104395689375
C            5.24362749312284       -0.77449677641287       -1.20991915718358
C            4.08065924905893       -1.18919397576254       -0.58944582460378
C            1.07605167095967       -1.70430383813841       -1.36684699769665
C           -0.14638962921982       -1.10156533774205       -1.58378484826237
C           -3.20976241921615       -1.07218295576950       -1.82354979071512
C           -4.58418708281288       -0.88684449408208       -1.89929811695247
C           -5.25092669197358       -0.22310190305573       -0.88243975539603
C           -4.52053760949039        0.37978039393095        0.17010106976566
C           -6.67799266486921       -0.11758705930969       -0.84502290867571
N           -7.52613340404873       -0.57907606471870       -1.71951890342596
C           -8.77290364378237       -0.23840415237634       -1.25441553820381
C          -10.02503597714628       -0.48795658872019       -1.80238120071468
C          -11.12888987948010       -0.02820603323397       -1.11117489592078
C          -11.00260089582908        0.66269588563689        0.09328634099468
C           -9.76455414888838        0.92220787137092        0.65529987196408
C           -8.65729351364047        0.46365403590029       -0.03251366965403
N           -7.29412710260601        0.53779355355478        0.22072923016085
H           -4.95841801542601        2.12016298595468        3.05071021787873
H           -2.49328524000290        2.27274833745629        2.87384803819377
H           -1.39849540088749        2.03669648508660       -1.17137047644437
H            0.87062994054849        2.80474658787420       -1.64787100892313
H            2.18336543506600        4.41493008917486        1.86650233083585
H            3.58156185398228        5.32212194807413        3.67695188391204
H            5.94340213335062        4.62984608881501        3.88697617674255
H            6.89327849323671        3.01571197607565        2.27638700119575
H            5.49331462541037        2.10085765127428        0.47260349982537
H            2.41846512071950        0.87239722504341       -1.87651851298365
H            3.35950242299064        0.82825102485165       -4.13855693123325
H            4.96076765556470        2.56674740356546       -4.85943210808304
H            5.60083158758640        4.36126839166328       -3.28441998429422
H            4.64974275672538        4.42111986316294       -1.02448971048582
H            2.07063028808066        1.67194613168608        2.30028441917200
H           -0.22494838440147        0.98757388758788        2.79889804929922
H           -1.49863898990211       -1.51026232975953        1.48114896416664
H            0.65582477099796       -2.60624536535164        1.86451619895668
H            0.67455352587142       -4.82223649112245        0.24647952098853
H            0.74224173941305       -6.83566805521122        1.65258601989568
H            2.70845304523496       -7.29526182584560        3.07519779884466
H            4.60934110110514       -5.71661692800625        3.07844563318775
H            4.53830643924084       -3.69229371686702        1.68552423991823
H            4.36181301795513       -4.52037568701744       -1.10896122736577
H            6.43757179671969       -3.77304492217725       -2.20056160938504
H            7.00485929014424       -1.36928580435739       -2.27313698629895
H            5.48671693779391        0.27692624111888       -1.24126160504779
H            3.42076387524988       -0.47393882470954       -0.12166090233141
H            1.79965414594967       -1.76392007091299       -2.16690589186101
H           -0.36770576600108       -0.68084180269569       -2.55362332759941
H           -2.71824499048316       -1.69392656942506       -2.55672403444358
H           -5.16167176894737       -1.31087457125993       -2.70552339485995
H          -10.11745882682816       -1.02264069269702       -2.73427183743613
H          -12.11631262307535       -0.20662917053191       -1.51049156063933
H          -11.89189432438166        1.00425276390457        0.60144834252648
H           -9.65942425782751        1.45585782209184        1.58662631019982
