95
 energy: -149.898134840672 gnorm: 0.000037974137 xtb: 6.7.1 (edcfbbe)
O           -6.94247809598512        2.51701283201666        0.88441412458923
C           -6.33454047106930        1.52224854944937        0.52212433450692
C           -4.87391101827883        1.42349785970176        0.47600549465290
C           -4.12729481773377        2.53399884502647        0.83436708719343
C           -2.74744594091907        2.52002743080096        0.70884688764485
C           -2.06919452687213        1.38802650521953        0.28411220791436
C           -0.64754508151350        1.53347055122060       -0.04169996226899
C           -0.16274566941528        1.12614508097648       -1.28566398179732
C            1.15034936735810        1.33804391243660       -1.64021494250824
C            2.03789704079421        1.95636571930727       -0.75380171003190
N            3.37169662825124        2.15506356545664       -1.09153375336111
C            4.04954430732407        1.26502650591948       -1.93750267244445
C            4.99715405208357        1.74374830846584       -2.84216696146704
C            5.68523240257703        0.86685995784629       -3.65897516114277
C            5.43771069447518       -0.49496335747090       -3.59373441642553
C            4.49203417292676       -0.97430043843568       -2.70198826457818
C            3.80365175040665       -0.10575502122444       -1.87719261256493
C            4.07647567843757        3.25065121906803       -0.56225391163924
C            3.48615817267028        4.51216325727911       -0.50480071306009
C            4.18821302695984        5.58399569706807        0.01358938176143
C            5.48506174766803        5.41689607990196        0.47267160591109
C            6.07656097294318        4.16509961951193        0.41352978937440
C            5.37969692870803        3.08598896910087       -0.09633543596874
C            1.54969480833245        2.37618718016322        0.48792645675151
C            0.22971159327372        2.18039777346921        0.82748344003279
C           -2.79210326590876        0.17965844177323        0.06726139128547
C           -2.16868632940813       -1.08038264605248       -0.16579747606117
C           -0.75385662622059       -1.33286153488628        0.12849091991556
C           -0.21267567581201       -0.97068673808725        1.36267530825851
C            1.08950214040313       -1.28025722474974        1.68599835831298
C            1.90810382114661       -1.95665065347385        0.77674441754057
N            3.23176464765179       -2.25742541979131        1.08329970962083
C            3.99554984444302       -1.42098253364096        1.90898912478395
C            4.93166644504765       -1.96791467476095        2.78682010157255
C            5.70338301824302       -1.14451446431599        3.58414112264668
C            5.55174994807462        0.23168256728699        3.52709244540673
C            4.61767943241608        0.77923930918344        2.66280377455132
C            3.84648449824781       -0.03576850983952        1.85699606973136
C            3.83173268480121       -3.40848161547845        0.54331292740935
C            3.13671152544219       -4.61625907198829        0.50342570277778
C            3.73276732711074       -5.74304553076416       -0.03054142399134
C            5.02686556620220       -5.68518781702348       -0.52290807577099
C            5.72316331046202       -4.48789551906937       -0.47950694714328
C            5.13252222032653       -3.35408564853520        0.04562220832090
C            1.36295427080727       -2.33137009816502       -0.45517260886138
C            0.05367998710237       -2.03609546496444       -0.76374948271769
C           -2.93955436799338       -2.15721555622510       -0.57486545544097
C           -4.31958670676258       -2.07102278123769       -0.67691383993431
C           -4.96440394396804       -0.90382859134536       -0.30497953487749
C           -4.21408802274939        0.23383131181831        0.08041862801513
C           -6.39243472887178       -0.80458777402346       -0.29448170201802
N           -7.24752195724877       -1.72694990112138       -0.63500182922364
C           -8.49203636647641       -1.17327519513130       -0.45768532743909
C           -9.74934793636409       -1.72362566520387       -0.67350814172583
C          -10.84882455574788       -0.93168535295104       -0.40568650940848
C          -10.71360197613414        0.37411899924729        0.06410738110697
C           -9.47027901571420        0.94132702678832        0.28447020064340
C           -8.36763166904746        0.15265756152095        0.01754983933806
N           -7.00149029019013        0.37940646086574        0.11577057441349
H           -4.64822187264683        3.42369563696183        1.15666347208809
H           -2.19106001387224        3.42643900016540        0.89431962742729
H           -0.83808225209782        0.66784588196683       -1.99290186030899
H            1.49822835250107        1.03637634017937       -2.61672289688265
H            5.18964564754213        2.80519154578724       -2.90020269595937
H            6.41557795894740        1.25157914703091       -4.35591402293169
H            5.97733092483282       -1.17722500580639       -4.23324080124570
H            4.29826325031271       -2.03503773722681       -2.63736353935987
H            3.07230471830778       -0.48497915711875       -1.18071153613631
H            2.47886486396676        4.64524476176471       -0.87214433045233
H            3.72211775368785        6.55788528591388        0.05078897763165
H            6.03135290265125        6.25732079122210        0.87388237538919
H            7.08464643645804        4.02467038719565        0.77527509161918
H            5.83675940113830        2.10802118176051       -0.13342047194140
H            2.21736508273616        2.85551942346661        1.18803787866897
H           -0.11916285707828        2.49677035161475        1.79931921373951
H           -0.83567940709331       -0.46744032724860        2.08738809784661
H            1.48147965265218       -1.01058513001893        2.65524690203857
H            5.04931299489655       -3.04048786269338        2.83957597219708
H            6.42371523349383       -1.58222925170391        4.25996729388796
H            6.15634933870492        0.87214743729568        4.15154476371961
H            4.49736405339981        1.85122025400075        2.60505277768087
H            3.12435972213624        0.39677382686447        1.18222838888999
H            2.13117245114971       -4.66412554137066        0.89568699164697
H            3.18572044136937       -6.67424200909752       -0.05430255472414
H            5.48982021924640       -6.56841307222314       -0.93683668371560
H            6.73045021737799       -4.43278524319389       -0.86587792132476
H            5.67145340349141       -2.41834569908372        0.07004621310067
H            1.97705582039989       -2.85594691684860       -1.17172203238291
H           -0.34008947843505       -2.32144655538509       -1.72793063490815
H           -2.45449150696632       -3.10157021376967       -0.77087971016145
H           -4.91368238631243       -2.91494579161751       -0.98961781704381
H           -9.84895651196724       -2.73401452979458       -1.03690598430451
H          -11.83999962964326       -1.33073441821897       -0.56288404804197
H          -11.59979491609180        0.95851271129100        0.26135601573825
H           -9.35758355711516        1.95062228388291        0.64761544823206
