79
 energy: -122.126080336018 gnorm: 0.000044800799 xtb: 6.7.1 (edcfbbe)
C           -6.00953824003507        4.11436247927388        0.65030367623829
C           -5.36555569428682        2.76499781817339        0.52680248518415
C           -5.61801288508943        1.79321677494729        1.50125846044813
C           -5.05737622618520        0.53275411165199        1.44679412659665
C           -4.22529105143839        0.24172129946598        0.37690910636315
C           -3.94578476048548        1.21065168869569       -0.61189692617451
C           -4.52212071554342        2.47176894547026       -0.53011694100546
C           -3.02639767934802        0.60218975233625       -1.53349699786478
C           -2.37610415157662        1.05179116947314       -2.67577093023230
C           -1.51807880014135        0.19879308261742       -3.34631969941126
C           -0.78008469715642        0.64732510151419       -4.57283464031380
C           -1.33263034964741       -1.10683263934427       -2.87723865960910
C           -1.95672543985632       -1.57696169260699       -1.74019960693448
C           -2.79461488471279       -0.70633138653195       -1.05929407766728
N           -3.52480112528057       -0.91508008853457        0.09537535532945
C           -3.39023378695638       -2.01920336587328        0.94778112010812
C           -4.50647980526816       -2.78028554664041        1.27503423591055
C           -4.38113483511711       -3.89934593029742        2.07720858808783
C           -3.13402756403460       -4.28420237467763        2.54830005345314
C           -2.01882031725302       -3.52825196201845        2.24784574642118
C           -2.13564161135336       -2.37877217743447        1.46746658789588
C           -0.95915965018800       -1.56579820425844        1.24603985362349
N            0.28265414298851       -1.92284231438928        1.40828660339435
N            1.04426774995425       -0.86868768417564        1.09746281962671
C            0.24543576230083        0.10283277365180        0.75859519331468
C            0.55656693825504        1.45177885998669        0.34745191398913
C           -0.47829427804835        2.38781914876516        0.29508163135299
C           -0.22030326484967        3.70636832239363       -0.01572421891181
C            1.08125536345759        4.11262938893579       -0.27285464575643
C            2.11149853449218        3.19289457656461       -0.25111160965601
C            1.86748595844939        1.85236508015327        0.04012383699350
N            2.92095010286920        0.94224787400405       -0.00366933650385
C            2.97463202447166       -0.20810635657644       -0.76733388404290
C            2.05620549515542       -0.71408554670576       -1.67428823892057
C            2.38523864393826       -1.87558169575939       -2.34287363474580
C            3.60136931558144       -2.53533573748493       -2.14118641388953
C            3.88353588155038       -3.80403808487056       -2.89108342787928
C            4.52545195671736       -2.00807310729560       -1.25723544906431
C            4.22004829161532       -0.84090204859401       -0.57055059664266
C            4.94800258678936       -0.03133948371824        0.36696158276508
C            6.20247525012507       -0.14106325640437        0.95146684386364
C            6.62121643991288        0.82693368857291        1.84761097376316
C            7.97060052011244        0.74649307321690        2.49892212595724
C            5.77125416059508        1.89225414339360        2.16106716584923
C            4.51823592074423        2.02455228947795        1.59600149881903
C            4.11395719134996        1.06208708217221        0.68369281671399
O           -1.04833060709862       -0.27767712245750        0.85116484402553
H           -7.09472565152662        4.01847430303760        0.66164567450976
H           -5.72790799245234        4.75708990762200       -0.17995095760857
H           -5.70935079597111        4.59659251149090        1.58025593590116
H           -6.27180126944428        2.04327314454516        2.32452436754795
H           -5.25514628616499       -0.19829699531528        2.21685213732097
H           -4.30750894669568        3.21422571864346       -1.28497089734877
H           -2.53721881753056        2.05921286745265       -3.03068344882186
H            0.29370768492197        0.51621107494985       -4.44064972232884
H           -1.08318923955268        0.05585145122299       -5.43657067428108
H           -0.97851980458495        1.69500944329524       -4.78443570716415
H           -0.67367134716433       -1.76451939126243       -3.42472381265028
H           -1.78687705747332       -2.58440778928758       -1.38790025914813
H           -5.46872761578684       -2.49100845208625        0.87911214130319
H           -5.25640494018772       -4.48165637794174        2.32300735381921
H           -3.03619039127567       -5.16929841644376        3.15769484274935
H           -1.04105831643642       -3.79409570731928        2.61696378039816
H           -1.48619316382704        2.06943537219613        0.51430166743898
H           -1.03061568585175        4.41814529768587       -0.04942411023704
H            1.29026005232881        5.14575528824157       -0.50720645104458
H            3.12129738041118        3.49698589095547       -0.48340008158587
H            1.11188085157293       -0.22049403956141       -1.85552120562050
H            1.68302902895937       -2.29516831535568       -3.04905972693333
H            3.75696130921542       -3.65370053532798       -3.96266448745015
H            3.19223506856097       -4.58724528981429       -2.58051945534869
H            4.89795560055199       -4.14758759861393       -2.70549645250100
H            5.47692790764571       -2.49540481197925       -1.10232610296401
H            6.84138149214331       -0.97796109265827        0.71052537377611
H            7.86651140073069        0.66763975172756        3.58071908051222
H            8.55185731725261        1.64306761495246        2.28562824573604
H            8.52351802909375       -0.11830832780853        2.14131933319020
H            6.10885239052078        2.63240844370396        2.87268188677543
H            3.87319413744016        2.84762201764906        1.86619239925691
