79
 energy: -122.044142521851 gnorm: 0.000060314627 xtb: 6.7.1 (edcfbbe)
C           -6.55793445521926        3.84607213146288        0.65544575679353
C           -5.75703989147017        2.58388231800839        0.54900874159775
C           -5.87805939555673        1.60789093936153        1.54417548477160
C           -5.16858218251356        0.42427214232817        1.50368973661420
C           -4.31993900399599        0.21393585311639        0.42552735162788
C           -4.16912427314549        1.19563876770637       -0.58214240685910
C           -4.89061655037671        2.37691547831961       -0.51463277204969
C           -3.18997342027346        0.68361041675640       -1.50434427900061
C           -2.60707870750266        1.18650062801465       -2.65666151229615
C           -1.65939099778834        0.42555869084252       -3.32510674855651
C           -0.97174389178899        0.95437454224903       -4.54700079767442
C           -1.33093842026151       -0.84831325571102       -2.84704370083375
C           -1.89357297184851       -1.37221274932988       -1.70188217011851
C           -2.80554284877502       -0.58424704052798       -1.01020907386098
N           -3.48578903539327       -0.84924257008371        0.15859417700159
C           -3.27859023808595       -1.96026776174064        0.98219075400248
C           -4.35113396747628       -2.75817051347369        1.34636399978350
C           -4.15892684683116       -3.90785802654163        2.09169061870889
C           -2.86284335053743       -4.28165168608797        2.47033336822921
C           -1.78956286605104       -3.49877760953156        2.14561523401670
C           -1.96206309862847       -2.28920707887841        1.43065864034449
C           -0.86127028051959       -1.43389741765459        1.24948671324722
N            0.42381198758455       -1.74123103886818        1.44694958519642
N            1.15041052504743       -0.73142648381495        1.08025506805008
C            0.34380028282969        0.24355560127667        0.65393179971886
C            0.67429612169355        1.49894629043138        0.12161411407558
C           -0.34088679669991        2.46138678678070       -0.10390446438047
C           -0.02773293069624        3.74290917993251       -0.46482792029761
C            1.30722207144503        4.13206101787585       -0.62655581658617
C            2.31729426732872        3.19869522857197       -0.46183066829930
C            2.02652977052470        1.88696775688558       -0.12673933801681
N            3.05287305684497        0.94276502528990       -0.06783983657873
C            3.10458612449975       -0.22843159794997       -0.79353763963428
C            2.22208855154104       -0.71728962750839       -1.74705248211743
C            2.53406890532587       -1.91472374908598       -2.35715901637654
C            3.70074443256611       -2.62445196351889       -2.05448781944336
C            3.96698511741010       -3.93189793312411       -2.73652394157146
C            4.59380452005355       -2.11303000856248       -1.12343141736953
C            4.30275298551825       -0.91389440933394       -0.49427478028284
C            5.00215792935765       -0.10520023318186        0.47052565609361
C            6.20219033785800       -0.24590312924598        1.14627280196119
C            6.59683786493288        0.73770820945309        2.04394597307537
C            7.88584159025043        0.61757270200827        2.79795869493709
C            5.77361261341987        1.84787785024109        2.26305485066324
C            4.57199579294836        2.01206136396475        1.60458269246522
C            4.19199998394034        1.03357760084787        0.69442426263759
O           -0.97464591169478       -0.14633603665313        0.77338401369972
H           -7.62250063002790        3.61843737167556        0.69797009045390
H           -6.37554604302116        4.49705935206670       -0.19564017013164
H           -6.29826824065136        4.38440258115493        1.56657010711401
H           -6.54645774005122        1.79346697032439        2.37246478031264
H           -5.26298339446900       -0.30850185699140        2.29053560825053
H           -4.77414964812115        3.12949525424487       -1.28069246371412
H           -2.88231380193848        2.16379991324322       -3.02493949044548
H            0.06242825588502        1.21079620769967       -4.31319438291070
H           -0.95753035033831        0.20525473281222       -5.33696319542126
H           -1.46816988820246        1.84735951447498       -4.91801958071801
H           -0.61064317095072       -1.43760835496440       -3.39582179876265
H           -1.61908098456070       -2.35397389938596       -1.34533271160073
H           -5.33989637309038       -2.49107373736896        1.00097203369314
H           -5.00108902358379       -4.52971733131218        2.35162903906001
H           -2.71601909314471       -5.19486931156633        3.02742109640814
H           -0.78566862989414       -3.76007780652365        2.44010236121605
H           -1.36733573956663        2.16065644434851        0.03869143286295
H           -0.81546826914210        4.46466683017127       -0.62239339502136
H            1.54792761191462        5.14436207028096       -0.91065814499036
H            3.34714997446108        3.47468615303515       -0.63930287209509
H            1.31608433117274       -0.18458486693486       -1.99485304390692
H            1.85896994318005       -2.32401940802160       -3.09501210481792
H            3.81713174415126       -3.84392712708369       -3.81146518148511
H            3.27941557501014       -4.69257490504113       -2.36634692295768
H            4.98317344873841       -4.26962850760805       -2.55022748731148
H            5.50594726957213       -2.64322648884679       -0.89243724760776
H            6.82220647575775       -1.11465946629980        0.98149096607108
H            7.68836334066386        0.48116661531821        3.86119474488807
H            8.48094300179521        1.52281424728316        2.68595312499872
H            8.46751060564366       -0.22980829150663        2.44467204961029
H            6.09181175356480        2.59536848809517        2.97533225747961
H            3.94239298577089        2.86720475281841        1.79762114959007
