70
 energy: -110.591164819318 gnorm: 0.000043988089 xtb: 6.7.1 (edcfbbe)
C           -2.49112890924255        4.77235179770476        0.10318464367894
C           -3.00964112428747        4.16541133550236        1.23626369410232
C           -3.32943575548661        2.82046904191193        1.22042614409101
C           -3.12828559009722        2.07820783507872        0.05944781459948
N           -3.44515677880065        0.70609434360450        0.03694882743828
C           -2.52756029577847       -0.35822556129642       -0.00074907679772
C           -1.12895937665663       -0.29358910587417        0.06069142026361
C           -0.40422636128452       -1.50666079458964       -0.16770996629992
C            0.94952624906061       -1.54552134507851       -0.15017027719227
C            1.73817794939499       -0.37898904671757        0.09416546042176
C            3.15820657129866       -0.40399878358247        0.08035226659733
C            3.93063427092296        0.78439495062366       -0.05020865845874
C            5.29328343244463        0.75676901204449       -0.07407749242205
C            6.00397683685073       -0.45620802312185        0.04587911635096
C            7.43303689068603       -0.44934488177793        0.02476118324604
C            8.31418922634118       -1.53175076084994        0.12579109566016
N            9.56099423482815       -1.01880563885746        0.05423627678137
C           10.77966043822674       -1.60747083777759        0.09889208329976
C           11.90061570836516       -0.83619229529510        0.00191637568758
C           11.79384023693415        0.56095882046288       -0.14358973609015
C           10.56512398810221        1.16268097129034       -0.18949731563542
C            9.41221360993778        0.36936145623608       -0.08964656577477
N            8.14314657919188        0.70623198066541       -0.10683758895488
C            5.25466934044989       -1.64300069246741        0.18309626381599
C            3.89053204430248       -1.61853821076944        0.19169573270993
C            1.00627053634573        0.81649971570168        0.36713332624371
C           -0.35056365860544        0.86262620352130        0.36126313223067
N           -3.17945354253463       -1.53103458124039       -0.07263836299729
C           -4.47846570317253       -1.25220635727844       -0.05850045123459
C           -5.56736715194933       -2.17239844075703       -0.07547730092883
C           -5.33756516739960       -3.55027024954251       -0.09086731596631
C           -6.39334678506930       -4.43154452700520       -0.07987460260184
C           -7.69257947548392       -3.93487322145862       -0.04818745995700
C           -7.92957046016830       -2.57727128984850       -0.03714137968004
C           -6.88004037120595       -1.64807274760296       -0.05666315746762
C           -7.09649224733346       -0.21083412552297       -0.07238534554850
C           -8.38308968325811        0.33428657093985       -0.12070074815503
C           -8.60459489320983        1.69300591577649       -0.16642376904804
C           -7.52628637474782        2.57551708906766       -0.17975652541810
C           -6.24699238372684        2.08671825819989       -0.12780924072347
C           -5.99449137409157        0.70195172355707       -0.05909637732773
C           -4.69704675927375        0.14829661120089       -0.00465631784795
C           -2.60970349471614        2.68696828910520       -1.07945113449960
C           -2.29243949194569        4.03253485838587       -1.05138522282220
H           -2.24131928898365        5.82228905582101        0.12094327421169
H           -3.16276423995442        4.74039041874038        2.13714777813894
H           -3.73468373932317        2.33586994571609        2.09656111207171
H           -0.98509111581146       -2.39064171709024       -0.37672500126646
H            1.44432920101484       -2.47832046306953       -0.37069546737288
H            3.42709990619539        1.73044419683949       -0.17482847895075
H            5.86871760929834        1.66182844894613       -0.19096408833290
H            8.13492706823491       -2.58106231950154        0.23902608322853
H           10.80354996124878       -2.68097885144696        0.21151052268435
H           12.87125055798303       -1.30322358192828        0.03737175321638
H           12.69289737230133        1.15229590948583       -0.21854602452783
H           10.44509004033598        2.22701870595595       -0.29979180524887
H            5.77066442494544       -2.58583474989782        0.28880519146861
H            3.35670307883099       -2.54629360576201        0.32711218628025
H            1.54749278268218        1.70946392098357        0.63946141004604
H           -0.84098572198629        1.78492082675696        0.62696843045795
H           -4.31386896994725       -3.89023542649852       -0.10647555302459
H           -6.22010650593799       -5.49717927357404       -0.09116912254775
H           -8.52803053485827       -4.61991994762671       -0.03204926715550
H           -8.95438044269900       -2.24280896082514       -0.00960411040098
H           -9.24148957745797       -0.31787194679508       -0.13081366142563
H           -9.61445446157830        2.07347907431273       -0.20254922011221
H           -7.69723124822135        3.64036734180069       -0.23440164612083
H           -5.41750372733179        2.77421402001286       -0.15415166623552
H           -2.45430894570201        2.09829155714604       -1.97118029630142
H           -1.89015322930171        4.50496396631824       -1.93474034134215
