  70
       -110.58886884
 C         -2.5690428052        4.7487307079        0.0066797991
 C         -3.0557439453        4.1482884902        1.1574721328
 C         -3.3573107139        2.7990243653        1.1642801703
 C         -3.1699217810        2.0454405185        0.0080522876
 N         -3.4649483548        0.6686012052        0.0075460558
 C         -2.5296949626       -0.3799292965       -0.0547142573
 C         -1.1305847448       -0.2922164988       -0.0176426405
 C         -0.3915798659       -1.4951793574       -0.2446379834
 C          0.9636102188       -1.5175878336       -0.2242392803
 C          1.7358069407       -0.3419733366        0.0185786035
 C          3.1571726441       -0.3535543354        0.0250170243
 C          3.9199865714        0.8387595076       -0.1198847052
 C          5.2830723616        0.8233332260       -0.1215673810
 C          6.0025773733       -0.3803874648        0.0369944327
 C          7.4304676068       -0.3604743213        0.0338294647
 C          8.3215157904       -1.4325143681        0.1680534748
 N          9.5634808891       -0.9096956459        0.0958942312
 C         10.7872664814       -1.4863377820        0.1626982560
 C         11.9021028010       -0.7068906749        0.0553499956
 C         11.7839068410        0.6853864794       -0.1224587500
 C         10.5499469632        1.2752534678       -0.1898506563
 C          9.4034567109        0.4738712402       -0.0806558170
 N          8.1318182616        0.7986264540       -0.1168018528
 C          5.2616926395       -1.5707375717        0.1906150858
 C          3.8973113481       -1.5583704807        0.1764897140
 C          0.9909459748        0.8475593861        0.2712408394
 C         -0.3675321453        0.8769681125        0.2646722290
 N         -3.1622192560       -1.5636694617       -0.1086258149
 C         -4.4648866274       -1.3084555526       -0.0558825865
 C         -5.5365051486       -2.2484200972       -0.0437639667
 C         -5.2817115769       -3.6215724158       -0.0774757290
 C         -6.3202458404       -4.5227836401       -0.0422044040
 C         -7.6268741953       -4.0507455934        0.0323149557
 C         -7.8885914412       -2.6978576499        0.0627852683
 C         -6.8574673259       -1.7487401663        0.0203285257
 C         -7.1005840929       -0.3160065329        0.0233399912
 C         -8.3975694705        0.2056262390        0.0328686132
 C         -8.6459993787        1.5602440463        0.0019859243
 C         -7.5856210597        2.4627262083       -0.0565421944
 C         -6.2966094347        1.9977986307       -0.0594035291
 C         -6.0152421951        0.6175919805       -0.0029827263
 C         -4.7071765882        0.0886308798        0.0055798715
 C         -2.6838987812        2.6479403291       -1.1488993326
 C         -2.3846968681        3.9978825941       -1.1433768300
 H         -2.3329786090        5.8020307284        0.0070967490
 H         -3.1977589899        4.7320529873        2.0546680024
 H         -3.7370214555        2.3195179277        2.0546060778
 H         -0.9606398877       -2.3875642316       -0.4502724953
 H          1.4707896968       -2.4448521103       -0.4406580994
 H          3.4095080912        1.7767882575       -0.2743608100
 H          5.8524743907        1.7306577753       -0.2503011068
 H          8.1512471724       -2.4808223424        0.3034161951
 H         10.8199201451       -2.5567568949        0.3000573187
 H         12.8766298973       -1.1643135344        0.1077185361
 H         12.6780823583        1.2830301717       -0.2048891544
 H         10.4213045608        2.3356905928       -0.3245911226
 H          5.7844040646       -2.5058447865        0.3268079580
 H          3.3684153954       -2.4869245479        0.3245420544
 H          1.5206377094        1.7513715652        0.5304983193
 H         -0.8680039659        1.7975653931        0.5175670112
 H         -4.2527664026       -3.9417776005       -0.1274317717
 H         -6.1279247846       -5.5848366923       -0.0683888436
 H         -8.4487484056       -4.7515147262        0.0663759939
 H         -8.9182503364       -2.3830210144        0.1222474172
 H         -9.2436668626       -0.4619259201        0.0590021574
 H         -9.6633598492        1.9217095557        0.0124164526
 H         -7.7782502628        3.5241874573       -0.1016193607
 H         -5.4820085062        2.7007652553       -0.1191831248
 H         -2.5386529809        2.0504069710       -2.0366259086
 H         -2.0074253171        4.4651085750       -2.0405621800
