  70
       -110.67284298
 C         -2.1672494870        4.5867827377        0.1162597993
 C         -2.8933412906        4.0656594213        1.1753774268
 C         -3.3214982701        2.7515579316        1.1447629487
 C         -3.0259793503        1.9562230297        0.0411708150
 N         -3.4312332499        0.6073416916        0.0161375905
 C         -2.5798089659       -0.4769463063        0.0090405627
 C         -1.1289779842       -0.4069546054        0.0252388875
 C         -0.4223162374       -1.4098084441       -0.6413884810
 C          0.9551509105       -1.4127503044       -0.6501896062
 C          1.6754752018       -0.4156373868        0.0079382775
 C          3.1430053543       -0.4146642225       -0.0005950955
 C          3.8576597513        0.7768022095       -0.1251815359
 C          5.2356899788        0.7758554729       -0.1291512019
 C          5.9469761999       -0.4176594764       -0.0014367159
 C          7.3981399256       -0.3858562892        0.0012284305
 C          8.2884173715       -1.4419932257        0.1265644163
 N          9.5310864277       -0.9033459480        0.0742010753
 C         10.7600590944       -1.4645661770        0.1462877724
 C         11.8640597424       -0.6726313205        0.0643033889
 C         11.7302475519        0.7229985530       -0.0949669843
 C         10.4915669109        1.2951621279       -0.1682432716
 C          9.3557967964        0.4770153299       -0.0831805945
 N          8.0767466270        0.7825324782       -0.1262462589
 C          5.2354302395       -1.6105776264        0.1234050343
 C          3.8562723799       -1.6067990966        0.1201657522
 C          0.9662043570        0.5728987295        0.6879197150
 C         -0.4137310351        0.5778569171        0.7045453111
 N         -3.2321734075       -1.6130100224       -0.0074359741
 C         -4.5505990348       -1.2902071654       -0.0051937003
 C         -5.6638723938       -2.1752464756        0.0235747693
 C         -5.4848730220       -3.5618227076        0.0671058731
 C         -6.5706242361       -4.3986975059        0.1286275399
 C         -7.8533244149       -3.8543896156        0.1500652243
 C         -8.0405864274       -2.4927924696        0.1020943771
 C         -6.9565899668       -1.6041690916        0.0313000253
 C         -7.1201104038       -0.1629847329       -0.0509687279
 C         -8.3893659032        0.4282296986       -0.1227318129
 C         -8.5563844641        1.7874045161       -0.2429306719
 C         -7.4464068980        2.6227672708       -0.3150282854
 C         -6.1852023965        2.0852071020       -0.2408780309
 C         -5.9930166157        0.7044072253       -0.0887217486
 C         -4.7094161231        0.0948341400       -0.0048619241
 C         -2.2976807932        2.4773359217       -1.0216296941
 C         -1.8704411553        3.7922321048       -0.9785429528
 H         -1.8320977490        5.6124819702        0.1459317565
 H         -3.1239530145        4.6825986470        2.0309559812
 H         -3.8863541053        2.3330053432        1.9652060105
 H         -0.9811407484       -2.1800653152       -1.1496494258
 H          1.4848299144       -2.1835372173       -1.1904165576
 H          3.3214404551        1.7077465822       -0.2408200851
 H          5.7939589717        1.6931585315       -0.2308231632
 H          8.1312676159       -2.4939872253        0.2460796421
 H         10.8046788482       -2.5366617551        0.2682100351
 H         12.8441483357       -1.1172331757        0.1212430966
 H         12.6181236067        1.3321462989       -0.1582516150
 H         10.3493579196        2.3558548098       -0.2901008726
 H          5.7640603954       -2.5462085329        0.2268185154
 H          3.3194461283       -2.5369714931        0.2380248119
 H          1.5050615227        1.3316968014        1.2363070035
 H         -0.9306262257        1.3370234526        1.2718567268
 H         -4.4743408870       -3.9397213613        0.0583422157
 H         -6.4378724207       -5.4699501407        0.1653705633
 H         -8.7113550728       -4.5089680312        0.2052743281
 H         -9.0518673032       -2.1185090544        0.1241964050
 H         -9.2712554033       -0.1911160714       -0.0933437121
 H         -9.5508961918        2.2057141823       -0.2950823326
 H         -7.5744300366        3.6886510514       -0.4335619578
 H         -5.3283742658        2.7356644899       -0.3172321837
 H         -2.0694178019        1.8482190187       -1.8690655464
 H         -1.3056623349        4.1973692935       -1.8044022215
