70
 energy: -110.672923866772 gnorm: 0.000017025551 xtb: 6.7.1 (edcfbbe)
C           -2.12380272699635        4.55657756301313        0.08640123629079
C           -2.86163934959269        4.05553284510639        1.14710113795266
C           -3.30357099204210        2.74574799222337        1.12944655062540
C           -3.00986049897764        1.93448698686773        0.03709520713677
N           -3.42723652465809        0.58926078583286        0.02444147216968
C           -2.58439896183292       -0.50191829316764        0.02917141384884
C           -1.13326322398212       -0.43727433709508        0.05196517051181
C           -0.42372131860286       -1.44038296631025       -0.61077035889102
C            0.95402865781874       -1.43987232572611       -0.61776591796449
C            1.67115968394822       -0.43857210983415        0.03732955326101
C            3.13868169955676       -0.42938791746907        0.02471764461011
C            3.84508898546242        0.76567730612031       -0.11191701585741
C            5.22302512552567        0.77324180762643       -0.12316727872037
C            5.94242182853296       -0.41486391467377        0.00976828112349
C            7.39338214831736       -0.37368458170016        0.00210687245486
C            8.29154677252394       -1.42308821908259        0.12749098082163
N            9.53018412444121       -0.87654596109440        0.06208382359886
C           10.76338787103649       -1.42914194284857        0.12895126795725
C           11.86136519702456       -0.63037971748630        0.03391657629030
C           11.71708199178192        0.76342341454132       -0.13324440743086
C           10.47415343061721        1.32673318494831       -0.20147334455744
C            9.34459182314751        0.50139997022127       -0.10296588748545
N            8.06325252118567        0.79827129080950       -0.13833678178978
C            5.23906374825982       -1.61106925112448        0.14866576591878
C            3.85983798633067       -1.61597760362548        0.15197982686802
C            0.95891117321865        0.54840121489803        0.71645657952842
C           -0.42085763875259        0.54910806636909        0.73229498313277
N           -3.24557435588453       -1.63277312351671        0.01677936983921
C           -4.56165344353348       -1.29932313512763        0.01026749063256
C           -5.68297429238629       -2.17443245962857        0.03708600124938
C           -5.51716537254588       -3.56252825006892        0.08449224118075
C           -6.61084145910371       -4.38937549261148        0.14280489361485
C           -7.88857066700300       -3.83343303498871        0.15885233752772
C           -8.06304009621444       -2.47028187212539        0.10694412333084
C           -6.97075905351491       -1.59186484793454        0.03690692675564
C           -7.12168714795926       -0.14983103587816       -0.05400919514078
C           -8.38536641948571        0.45212533113951       -0.13498887479897
C           -8.53967679088967        1.81180290372177       -0.26581981951283
C           -7.42199425517704        2.63667341901223       -0.33989334990684
C           -6.16601550596642        2.08847849707429       -0.25648866250629
C           -5.98691776991885        0.70719832276084       -0.09319337125464
C           -4.70919234152159        0.08696890631906        0.00109674338356
C           -2.27012384052865        2.43559125787329       -1.02741238497174
C           -1.82924937413578        3.74630368842291       -0.99735796036605
H           -1.77804612238030        5.57896636675469        0.10612278765674
H           -3.09040462282662        4.68494536793059        1.99401109968341
H           -3.87722739506165        2.34285884727105        1.95157009006321
H           -0.97966261562657       -2.21282596005978       -1.11893509203795
H            1.48641128866617       -2.21043677130711       -1.15578579698801
H            3.30235838364436        1.69227547680156       -0.23200038575067
H            5.77511414585328        1.69308621263680       -0.23513251491073
H            8.14229136897001       -2.47547106230918        0.25421142167881
H           10.81614639739514       -2.50014146164646        0.25743100127211
H           12.84486674300583       -1.06786381822082        0.08705198635991
H           12.60048695893609        1.37796191300161       -0.20631752665134
H           10.32384669896981        2.38562158774840       -0.32841778831669
H            5.77403066649647       -2.54249978461417        0.25734881621778
H            3.32919639421472       -2.54846300428362        0.27943358465501
H            1.49535344496167        1.30993503296820        1.26343443708223
H           -0.94019769076767        1.30692623657328        1.29909371475518
H           -4.51024982517711       -3.95003746804729        0.08046612741985
H           -6.48801925556209       -5.46176619158789        0.18118668846166
H           -8.75281286436351       -4.47991354204096        0.21264206272021
H           -9.07084558982550       -2.08659023269209        0.12501750716188
H           -9.27292863141683       -0.15897566604716       -0.10448691996675
H           -9.53011486361950        2.23867630024672       -0.32498920671151
H           -7.53997425373610        3.70270706703075       -0.46711881927015
H           -5.30314842706686        2.73065731781631       -0.33432116379052
H           -2.04355957987892        1.79403245714191       -1.86593083685746
H           -1.25498378380084        4.13533106693575       -1.82452282364723
