70
 energy: -110.672717243273 gnorm: 0.000031429869 xtb: 6.7.1 (edcfbbe)
C           -2.23420456346590        4.46389545164862       -0.47960372396661
C           -1.93115876046201        3.76716599224444        0.67821725536990
C           -2.33640257068183        2.45301199360761        0.82664927326008
C           -3.04866735106160        1.83381231531997       -0.19350958905429
N           -3.43137344307267        0.48491077832657       -0.05841667771957
C           -2.56304125211919       -0.58180877780238        0.03847692931350
C           -1.11360425169190       -0.48962213204738        0.01113448551706
C           -0.38738766386572       -1.42689656977151        0.74858319972628
C            0.98982347141682       -1.39830758311430        0.76077354226675
C            1.69101425283992       -0.44101837903902        0.02699806482657
C            3.15818854923463       -0.40799817980767        0.04180362890974
C            3.88111620570577       -0.15614383807833       -1.12432152374660
C            5.25879375183967       -0.13255324953683       -1.10898285072548
C            5.96166010589807       -0.35347891243589        0.07592782463543
C            7.41275691827651       -0.32098565512538        0.05981574087187
C            8.29692859190148       -0.52372861729149        1.10903572413644
N            9.54244520815096       -0.39188082761955        0.59079109559950
C           10.76810592284649       -0.48740208542640        1.15580968698683
C           11.87625438617456       -0.30566672494736        0.38665174619858
C           11.75023601828362       -0.01995602974424       -0.98955857856040
C           10.51500686535321        0.07747964164968       -1.56536225394389
C            9.37494629180746       -0.11018279109998       -0.77049020301328
N            8.09785702847307       -0.06852172127887       -1.08416304297560
C            5.24190966685365       -0.60142555412954        1.24438454126293
C            3.86312722655311       -0.63117958096094        1.22410905375188
C            0.96285653318474        0.47469341057485       -0.73027106593963
C           -0.41699307993344        0.45406492276069       -0.74208878304970
N           -3.19819401560579       -1.72188461831508        0.15488630656112
C           -4.52148931282584       -1.42049782340850        0.12938317465853
C           -5.62187657319742       -2.32059861744430        0.18322616755205
C           -5.42324952960621       -3.70271598851320        0.26582486721235
C           -6.49700999712858       -4.55706003477667        0.28444366916403
C           -7.78741042177003       -4.03541581944417        0.21608793004196
C           -7.99407339343823       -2.67790221330408        0.14010962846569
C           -6.92294175722414       -1.77117530658506        0.12788652420849
C           -7.10789626184849       -0.33094783465592        0.08228354649162
C           -8.38570473033236        0.24573847145953        0.10265779401117
C           -8.57256502581115        1.60762399638638        0.10365705688588
C           -7.47490698745025        2.46215453115870        0.10219523247195
C           -6.20602575893066        1.93857910350916        0.07441491720795
C           -5.99366841267226        0.55270365870332        0.04304823278521
C           -4.70139927239344       -0.04319250337740        0.00995649855508
C           -3.35084567467748        2.53078866362339       -1.35996537019506
C           -2.94464994833780        3.84518540411894       -1.49598584827075
H           -1.91630176139571        5.48937282529630       -0.59158599510577
H           -1.37795708385288        4.24800311255923        1.47073308946972
H           -2.10291999828155        1.89913161442338        1.72372090345108
H           -0.93097424146091       -2.17390119502605        1.30576299840903
H            1.53540352083393       -2.13883612683354        1.32704380939192
H            3.35271902311425       -0.00241554086848       -2.05398433071908
H            5.82349917778910        0.05364983729183       -2.00889493862874
H            8.13400444938991       -0.74401135796802        2.14384299889872
H           10.80679488036988       -0.70807926282545        2.21229250970263
H           12.85380268979272       -0.38126729710823        0.83406635158822
H           12.64147890184563        0.12028916218260       -1.58066065382625
H           10.37850676190561        0.29355359804551       -2.61160335763809
H            5.76362933129276       -0.77012419527444        2.17445469392936
H            3.31935854392436       -0.80807866362278        2.14100901752382
H            1.48568666907303        1.22400774009578       -1.30651032176044
H           -0.94782719386359        1.16353809446469       -1.35849409422761
H           -4.40751272881159       -4.06420409247964        0.30653228699580
H           -6.34887296319505       -5.62512888763948        0.34642122993907
H           -8.63606628091829       -4.70435509541581        0.22276747823263
H           -9.01060981619245       -2.32161121457686        0.08602565788884
H           -9.25852348747519       -0.38647865203599        0.12752928811909
H           -9.57302957253187        2.01446459593184        0.11920549179644
H           -7.61843938480728        3.53234959586270        0.12724067537624
H           -5.35896732728126        2.60573519784194        0.09302240580793
H           -3.90321754473320        2.03670787379011       -2.14610143048356
H           -3.17994654971265        4.38602796785161       -2.40033859188666
