  71
       -110.31063798
 C          2.3316372381       -4.7483061627        0.8381093344
 C          3.3326462406       -3.8273917439        0.6143820910
 C          3.0134224568       -2.4913051035        0.3016958428
 C          3.9619339744       -1.4198859978        0.1386140786
 C          5.3743615588       -1.5307376594        0.1495053932
 C          6.1221419969       -0.3710783932        0.0248520589
 C          5.5207240568        0.8689320216       -0.1139740202
 C          4.1050144578        0.9275867145       -0.1300762300
 C          3.2944539852        2.1035995141       -0.3113632194
 C          3.7752259908        3.3884788164       -0.6325446038
 C          2.8950309493        4.4206684669       -0.8767196030
 C          1.5180589951        4.2311763558       -0.8385776507
 C          1.0244494501        2.9622987973       -0.5022041551
 N         -0.3510931635        2.6854783952       -0.5094144768
 C         -1.3509896116        3.4383210427        0.0610154784
 C         -1.2581560370        4.5889336092        0.8328828614
 C         -2.4307870718        5.1364672746        1.3184727718
 C         -3.6685995760        4.5554556111        1.0517273065
 C         -3.7658710613        3.3970586488        0.3022881246
 C         -2.6031453616        2.8264027780       -0.1922908104
 C         -2.3279303247        1.6385382037       -0.9534603080
 C         -3.1285034295        0.6444942098       -1.4949646833
 C         -2.5256932460       -0.3954385086       -2.1785810834
 C         -1.1441815243       -0.4316966652       -2.3492699982
 C         -0.3274791014        0.5593753188       -1.8387547809
 C         -0.9230159897        1.5863608121       -1.1163560183
 C          1.9010898446        1.9414139895       -0.2110693448
 N          3.4344596432       -0.2102713335        0.0001962378
 C          1.6509397173       -2.1610144968        0.1922631108
 C          0.6541901185       -3.0695180030        0.4705444917
 N         -0.6757747925       -2.6232739106        0.4865047357
 C         -1.7699834190       -3.2427750036       -0.0715017978
 C         -1.8343705883       -4.3915773508       -0.8491103900
 C         -3.0742516727       -4.7873203132       -1.3146501086
 C         -4.2261978072       -4.0595273214       -1.0236150755
 C         -4.1657685926       -2.9014780577       -0.2702251900
 C         -2.9324889705       -2.4817075767        0.2042912902
 C         -2.5009002668       -1.3416970193        0.9657070277
 C         -3.1640819735       -0.2587210745        1.5223409812
 C         -2.4277258583        0.6924520846        2.2042345679
 C         -1.0511260726        0.5524730740        2.3601903056
 C         -0.3713768241       -0.5291763399        1.8332371178
 C         -1.0986626861       -1.4662262392        1.1091351241
 C          0.9881275575       -4.3929717210        0.7931064406
 H          2.5932930395       -5.7682939612        1.0810047544
 H          4.3645572046       -4.1328340259        0.6897364380
 H          5.8423398458       -2.4949623223        0.2541386806
 H          7.2018079379       -0.4355050219        0.0360143897
 H          6.1018842402        1.7707367631       -0.2079232254
 H          4.8371037315        3.5663000576       -0.7003648746
 H          3.2799602693        5.3984723724       -1.1288787437
 H          0.8414617276        5.0295277583       -1.0983002764
 H         -0.3010161439        5.0331702665        1.0580435813
 H         -2.3864797918        6.0312858478        1.9212075200
 H         -4.5625805093        5.0144192008        1.4467845749
 H         -4.7248143623        2.9398168068        0.1112092159
 H         -4.2010373953        0.6825267552       -1.3823661456
 H         -3.1300569314       -1.1867174319       -2.5956729339
 H         -0.7014242772       -1.2491240389       -2.8988953560
 H          0.7372870137        0.5386887831       -2.0105468682
 H          1.5187513888        0.9875542597        0.1116948297
 H          1.3902936433       -1.1652183688       -0.1249118181
 H         -0.9442829653       -4.9503127146       -1.0936249492
 H         -3.1521416245       -5.6778083849       -1.9203759328
 H         -5.1769061788       -4.4035671536       -1.4027059721
 H         -5.0566139957       -2.3293965742       -0.0597825358
 H         -4.2341346123       -0.1610826153        1.4229839695
 H         -2.9229521961        1.5509121859        2.6321745667
 H         -0.5030597375        1.3023236487        2.9112085559
 H          0.6889705311       -0.6445445457        1.9942234140
 H          0.2183376859       -5.1065165629        1.0397372331
