  71
  -109.873191002300       0.418016068202882      !
 C          4.6701619790        2.5583970766       -1.2284182304
 C          3.6925967204        3.4874850389       -0.9480867332
 C          2.4237475428        3.0768662426       -0.4922233558
 C          1.3281933987        3.9707176980       -0.2193333508
 C          1.4089047216        5.3873223348       -0.1994424382
 C          0.2560127063        6.1038077227        0.0701270612
 C         -0.9478373021        5.4677442110        0.3123289422
 C         -0.9773965842        4.0481631295        0.2800227332
 C         -2.1419782367        3.2344531490        0.5099248862
 C         -3.3928184653        3.7383937736        0.9221523202
 C         -4.4527572578        2.8880245967        1.1450040142
 C         -4.3237684396        1.5149362429        0.9808023839
 C         -3.0873060564        0.9979737757        0.5661664612
 N         -2.9195567558       -0.3884620849        0.4238071922
 C         -1.9112879880       -1.1374926235        0.9909113327
 C         -0.8258468474       -0.7302130512        1.7555920302
 C          0.0370137752       -1.7037241023        2.2227105023
 C         -0.1805748215       -3.0539322234        1.9617037204
 C         -1.2703266102       -3.4682834310        1.2184818339
 C         -2.1374764830       -2.5085905828        0.7193049966
 C         -3.3307315054       -2.5731369906       -0.0795486494
 C         -4.0274575499       -3.6105736602       -0.6805236787
 C         -5.1487681801       -3.3080812350       -1.4325729926
 C         -5.5690874516       -1.9904856864       -1.5980976247
 C         -4.8919573989       -0.9392709350       -1.0082857745
 C         -3.7783692317       -1.2387416460       -0.2346285431
 C         -2.0273848116        1.8438699060        0.3256087128
 N          0.1534880882        3.4051179993        0.0215361671
 C          2.2084975993        1.6985274771       -0.3155983114
 C          3.1852502854        0.7736677082       -0.6126125284
 N          2.9052977235       -0.5937958686       -0.4699242641
 C          1.7892289062       -1.2365712599       -0.9607315538
 C          0.7178756823       -0.7268544860       -1.6832411523
 C         -0.2697127317       -1.6076230461       -2.0824897152
 C         -0.1898902775       -2.9675497913       -1.7951956907
 C          0.8836430531       -3.4850321210       -1.0939157451
 C          1.8773407180       -2.6184540749       -0.6653552576
 C          3.1025638009       -2.8004986901        0.0640039830
 C          3.7170133831       -3.8986275395        0.6465215896
 C          4.9129006976       -3.7113061292        1.3167214161
 C          5.4880235478       -2.4470276786        1.4206362744
 C          4.8938022724       -1.3366049578        0.8502218292
 C          3.7047739820       -1.5221292828        0.1574712922
 C          4.4385528036        1.1970359719       -1.0782650145
 H          5.6336539767        2.8901141370       -1.5879001665
 H          3.9000512753        4.5356591236       -1.0942630142
 H          2.3487596572        5.8802499237       -0.3795292612
 H          0.2973353822        7.1845542135        0.0915559884
 H         -1.8465650761        6.0250938501        0.5130090403
 H         -3.5235807119        4.7978221372        1.0750273305
 H         -5.4020695963        3.2913647240        1.4669666473
 H         -5.1437574921        0.8495730849        1.1992624953
 H         -0.6654264514        0.3108410609        1.9886250831
 H          0.8961568407       -1.4121866641        2.8085093574
 H          0.5143062174       -3.7834246328        2.3494833983
 H         -1.4451573809       -4.5159887240        1.0266740112
 H         -3.6966609521       -4.6318847707       -0.5667283950
 H         -5.7042300806       -4.1020277870       -1.9088525246
 H         -6.4384856680       -1.7852130999       -2.2045937304
 H         -5.2098301902        0.0815277160       -1.1551096486
 H         -1.0914016243        1.4470728767       -0.0332860946
 H          1.2612309588        1.3728165244        0.0830365300
 H          0.6622709503        0.3202135460       -1.9372164817
 H         -1.1199615258       -1.2349441526       -2.6344691785
 H         -0.9795367347       -3.6229403755       -2.1302145834
 H          0.9514356821       -4.5414068099       -0.8836330040
 H          3.2672356966       -4.8776760903        0.5800556985
 H          5.4077558115       -4.5544064076        1.7750629977
 H          6.4149187103       -2.3305481667        1.9620634927
 H          5.3325671577       -0.3560122513        0.9516863436
 H          5.1915476329        0.4729524155       -1.3455246220
  71
  -109.872831865100       0.285854442806675      !
 C          4.2888606479        2.5724360281       -2.2150535135
 C          3.4163704827        3.4988113094       -1.6890318953
 C          2.1981978926        3.0886044335       -1.1061796395
 C          1.2305357203        3.9764828936       -0.5229135429
 C          1.3142587251        5.3949460508       -0.5059374059
 C          0.2968413428        6.1048298208        0.1015474775
 C         -0.7870941314        5.4628881594        0.6794569341
 C         -0.8260741445        4.0465873444        0.6347374778
 C         -1.8901056438        3.2232396314        1.1550745843
 C         -3.1212855522        3.7212721716        1.6234567731
 C         -4.1095211155        2.8591248165        2.0459265703
 C         -3.9286572271        1.4826483214        2.0156839078
 C         -2.7013568827        0.9717806297        1.5695563630
 N         -2.4932360044       -0.4140426823        1.5014548318
 C         -2.8015558894       -1.3275811754        2.4849554554
 C         -3.2741733047       -1.1125805347        3.7727483408
 C         -3.4859918086       -2.2180438880        4.5758171112
 C         -3.2238266208       -3.5074964440        4.1195883497
 C         -2.7277841488       -3.7262803493        2.8467451151
 C         -2.5102308223       -2.6333991501        2.0214856457
 C         -2.0048144581       -2.4851217296        0.6841792203
 C         -1.5938503678       -3.3877098095       -0.2847545504
 C         -1.1708020889       -2.9005534980       -1.5073657453
 C         -1.1676549047       -1.5332923898       -1.7708505780
 C         -1.5890597013       -0.6153868969       -0.8276276484
 C         -1.9990276782       -1.0961092973        0.4097496340
 C         -1.7019959800        1.8302705545        1.1647289203
 N          0.1755866977        3.4078068236        0.0498836686
 C          1.9173929780        1.7096938285       -1.0934080090
 C          2.8030742908        0.7877655342       -1.6040244618
 N          2.4947706270       -0.5784909555       -1.5145649004
 C          2.5539757737       -1.4947178805       -2.5391607999
 C          2.8498288326       -1.2968026357       -3.8812345034
 C          2.7939739700       -2.3928449174       -4.7222689486
 C          2.4486778859       -3.6554473017       -4.2462631196
 C          2.1374048596       -3.8553101883       -2.9129401997
 C          2.1824909715       -2.7708831921       -2.0501688647
 C          1.8825704539       -2.5984613635       -0.6548422471
 C          1.4776697788       -3.4635905427        0.3501960367
 C          1.2512495782       -2.9512455378        1.6141676162
 C          1.4493408086       -1.5997917474        1.8859175050
 C          1.8733150515       -0.7217934353        0.9065310420
 C          2.0728052194       -1.2243089416       -0.3730265694
 C          4.0098576099        1.2113274781       -2.1805411669
 H          5.2186469975        2.9056607964       -2.6533757157
 H          3.6735146686        4.5457164763       -1.7205142514
 H          2.1551125215        5.8927248027       -0.9578468276
 H          0.3449062209        7.1852040931        0.1254219759
 H         -1.5797610654        6.0153447690        1.1538211860
 H         -3.3038685601        4.7840360441        1.6371087713
 H         -5.0531764482        3.2571340479        2.3902643565
 H         -4.7261565816        0.8129689806        2.2953891099
 H         -3.4594590338       -0.1150443898        4.1400640384
 H         -3.8581316294       -2.0778402681        5.5796803337
 H         -3.4034000745       -4.3456502340        4.7760763550
 H         -2.5111936509       -4.7257127223        2.5010961966
 H         -1.6106924468       -4.4482847461       -0.0852369073
 H         -0.8410144347       -3.5842932887       -2.2746994566
 H         -0.8340605760       -1.1845677565       -2.7370866955
 H         -1.6134521723        0.4388653861       -1.0549557811
 H         -0.7435255060        1.4377141184        0.8659073906
 H          0.9722412335        1.3813585825       -0.6924294232
 H          3.0987183059       -0.3166461321       -4.2578489414
 H          3.0170540684       -2.2662677679       -5.7711057071
 H          2.4159701341       -4.4870575679       -4.9341532481
 H          1.8579005836       -4.8329803105       -2.5502974389
 H          1.3426368463       -4.5145904524        0.1459779886
 H          0.9209582280       -3.6049313838        2.4073712307
 H          1.2726140654       -1.2313326646        2.8855315322
 H          2.0492261003        0.3185502760        1.1318218600
 H          4.7171470268        0.4886611680       -2.5550069836
  71
  -109.871877320500       0.104103809373012      !
 C          4.6950597982        2.4955822810       -0.9628270066
 C          3.7326123915        3.4518375778       -0.7229836155
 C          2.4221478853        3.0731555746       -0.3683624022
 C          1.3285279178        3.9860660789       -0.1603946322
 C          1.4124976552        5.4025514535       -0.1534341850
 C          0.2460112097        6.1251748122        0.0290533651
 C         -0.9749929454        5.4971294746        0.2049438065
 C         -1.0054803115        4.0784875768        0.1981159889
 C         -2.1691387327        3.2547282832        0.3976761472
 C         -3.4456524686        3.7343834899        0.7538748986
 C         -4.4821925231        2.8565089134        0.9846341709
 C         -4.3044160431        1.4814860709        0.8906818105
 C         -3.0433939611        0.9891938422        0.5227253114
 N         -2.8013843439       -0.3912835012        0.4570291128
 C         -1.7298646293       -1.0366331444        1.0371258539
 C         -0.6793895990       -0.5193831935        1.7854079968
 C          0.2676951231       -1.4023581946        2.2677604386
 C          0.1661500865       -2.7729926001        2.0424165018
 C         -0.8934144540       -3.2979612287        1.3262287276
 C         -1.8433205555       -2.4294559700        0.8105306881
 C         -3.0365873571       -2.6177886188        0.0314794698
 C         -3.6525953703       -3.7296995750       -0.5221158389
 C         -4.8038398685       -3.5474792965       -1.2674710267
 C         -5.3325795157       -2.2753998963       -1.4727034692
 C         -4.7369158710       -1.1516935053       -0.9304778136
 C         -3.5939664287       -1.3306396013       -0.1627748197
 C         -2.0126322919        1.8637208074        0.2604695791
 N          0.1372626361        3.4312747493        0.0158692295
 C          2.1546346970        1.6980763067       -0.2421131450
 C          3.1115015384        0.7458870020       -0.5135695097
 N          2.7596972451       -0.6112671129       -0.4594792482
 C          1.6396443240       -1.1636878260       -1.0438823556
 C          0.6323221943       -0.5571868407       -1.7844194146
 C         -0.3819788181       -1.3575173666       -2.2743436018
 C         -0.3885553894       -2.7342895201       -2.0639724224
 C          0.6270747050       -3.3488308879       -1.3554350574
 C          1.6430912636       -2.5635011611       -0.8323477374
 C          2.8189001032       -2.8538891009       -0.0581237046
 C          3.3462985116       -4.0170215302        0.4816358843
 C          4.5096592645       -3.9344621173        1.2258274901
 C          5.1374843552       -2.7104095938        1.4434876718
 C          4.6314226065       -1.5372457029        0.9150063514
 C          3.4766056689       -1.6169806537        0.1483280471
 C          4.4075573278        1.1385312898       -0.8797377179
 H          5.6930226480        2.8029361011       -1.2408218178
 H          3.9851057596        4.4959809441       -0.8198496401
 H          2.3626682303        5.8908324570       -0.2874348804
 H          0.2896502808        7.2060142759        0.0344848487
 H         -1.8827504966        6.0591082940        0.3443425117
 H         -3.6136892408        4.7945839037        0.8592587102
 H         -5.4526661850        3.2406704546        1.2643974844
 H         -5.1058039888        0.8012379733        1.1307204047
 H         -0.6082310973        0.5362505762        1.9958401713
 H          1.1026493828       -1.0226249390        2.8379225289
 H          0.9247773615       -3.4299377610        2.4403316503
 H         -0.9829753162       -4.3619026465        1.1691234937
 H         -3.2363536536       -4.7152191036       -0.3779123015
 H         -5.2983770127       -4.4009612588       -1.7067352848
 H         -6.2236950670       -2.1638604722       -2.0721083516
 H         -5.1394983214       -0.1668087678       -1.1100608482
 H         -1.0609768601        1.4847786533       -0.0740946038
 H          1.1761713842        1.3939987575        0.0915349862
 H          0.6444719437        0.5029369634       -1.9837078382
 H         -1.1850488403       -0.9069893742       -2.8387142941
 H         -1.1969859649       -3.3250432779       -2.4675328063
 H          0.6326119672       -4.4181228476       -1.2097928539
 H          2.8532997254       -4.9649629495        0.3279629463
 H          4.9361198788       -4.8290737701        1.6542960052
 H          6.0357279319       -2.6761453357        2.0417440147
 H          5.1104730789       -0.5891658023        1.1047294899
 H          5.1515279310        0.3981910842       -1.1266299863
  71
  -109.871548835000       7.353686953282901E-002 !
 C          4.1136817199        2.4887700968       -2.3788180426
 C          3.2567084388        3.4534246571       -1.8947217675
 C          2.0519025939        3.0851738041       -1.2642619707
 C          1.1184976902        4.0014578555       -0.6610252439
 C          1.1746213758        5.4173659163       -0.7136135819
 C          0.1983993209        6.1347745294       -0.0416251400
 C         -0.8118030077        5.5021946430        0.6622827633
 C         -0.8307245064        4.0837715458        0.6766006005
 C         -1.8185524986        3.2455730910        1.3026512926
 C         -2.9996659540        3.6993714636        1.9236057886
 C         -3.9205453752        2.7981509291        2.4124669409
 C         -3.7330511432        1.4258340410        2.2924147550
 C         -2.5546095896        0.9587244557        1.6912677125
 N         -2.3384446836       -0.4113789117        1.4805322217
 C         -2.5258511335       -1.4264159957        2.3902367991
 C         -2.8672253036       -1.3544443056        3.7343076119
 C         -2.9625645391       -2.5392807162        4.4401357481
 C         -2.7174145420       -3.7683449819        3.8319650907
 C         -2.3538636125       -3.8448348046        2.4995200332
 C         -2.2501082948       -2.6698852416        1.7708857199
 C         -1.8747098029       -2.3735622274        0.4152745986
 C         -1.5147107824       -3.1593491758       -0.6687945248
 C         -1.1990042066       -2.5386017120       -1.8632759703
 C         -1.2675039573       -1.1533230576       -1.9883110243
 C         -1.6475160080       -0.3509146389       -0.9294749528
 C         -1.9321352866       -0.9653798184        0.2841051093
 C         -1.6108141649        1.8554699391        1.2443006489
 N          0.1291977407        3.4433270232        0.0218529008
 C          1.7533003978        1.7130749902       -1.1850387060
 C          2.6271169538        0.7520058732       -1.6411373188
 N          2.3132616762       -0.6023435776       -1.4497986071
 C          2.4111308819       -1.6020780077       -2.3904454862
 C          2.7354098323       -1.5153722002       -3.7377701419
 C          2.7295928711       -2.6820851991       -4.4790732855
 C          2.4035160955       -3.9071550657       -3.9017015004
 C          2.0562862789       -3.9961056384       -2.5656711720
 C          2.0507290134       -2.8386321207       -1.8023038591
 C          1.7129388504       -2.5533632723       -0.4345165529
 C          1.2995360141       -3.3398047819        0.6298832386
 C          1.0360832770       -2.7303107641        1.8424330982
 C          1.2085332329       -1.3578048617        2.0045919209
 C          1.6424915915       -0.5568374525        0.9657054501
 C          1.8760629258       -1.1572626241       -0.2655850765
 C          3.8311382402        1.1340345399       -2.2509767942
 H          5.0380853053        2.7874866048       -2.8520299565
 H          3.5192697569        4.4953048458       -1.9900235383
 H          1.9568180982        5.9101274645       -1.2656534624
 H          0.2258193012        7.2157933914       -0.0691514398
 H         -1.5699881558        6.0599739481        1.1853462934
 H         -3.1928854990        4.7573147174        2.0078576471
 H         -4.8250570140        3.1624599233        2.8782902500
 H         -4.4919143142        0.7322873538        2.6174840313
 H         -3.0403421661       -0.4041831443        4.2153118198
 H         -3.2289984227       -2.5114653755        5.4861721186
 H         -2.8028578209       -4.6720037130        4.4166920420
 H         -2.1467735280       -4.7971825555        2.0354310539
 H         -1.4836049451       -4.2343349361       -0.5792744767
 H         -0.9030190395       -3.1310810566       -2.7157341688
 H         -1.0237033259       -0.6965750263       -2.9361341608
 H         -1.7322686987        0.7176572410       -1.0505540144
 H         -0.6781682605        1.4942626186        0.8439891484
 H          0.8048936166        1.4171950529       -0.7686428428
 H          2.9702015391       -0.5663295324       -4.1944267396
 H          2.9772687078       -2.6422157575       -5.5293076623
 H          2.4114064547       -4.7967521976       -4.5136031787
 H          1.7859181213       -4.9440289253       -2.1256689557
 H          1.1865640203       -4.4064369177        0.5106332513
 H          0.6999148506       -3.3222079160        2.6803164313
 H          1.0045735440       -0.9114437074        2.9666365259
 H          1.8049586419        0.4992963368        1.1137553962
 H          4.5360342078        0.3873593807       -2.5800357282
  71
  -109.871503390700       7.008424251097582E-002 !
 C          4.6977207208        2.4885740126       -0.9359232049
 C          3.7378636702        3.4481882396       -0.6985479520
 C          2.4237210060        3.0735764925       -0.3534438722
 C          1.3303037720        3.9881926025       -0.1520858483
 C          1.4139151497        5.4046127505       -0.1451229125
 C          0.2458168910        6.1269678746        0.0284374357
 C         -0.9764253389        5.4989238516        0.1959283879
 C         -1.0064783626        4.0803507775        0.1900534068
 C         -2.1696937621        3.2544482183        0.3834580162
 C         -3.4496158761        3.7299086347        0.7328424239
 C         -4.4833761083        2.8480922062        0.9616677705
 C         -4.2994394229        1.4733748901        0.8735485905
 C         -3.0349133067        0.9852340720        0.5121608160
 N         -2.7838928126       -0.3940008452        0.4555648619
 C         -1.7081492820       -1.0272357393        1.0414386498
 C         -0.6627138186       -0.4970972114        1.7878484534
 C          0.2909249928       -1.3694483480        2.2765657134
 C          0.2006246166       -2.7422221175        2.0597042951
 C         -0.8543089176       -3.2800128379        1.3462251285
 C         -1.8105758178       -2.4223848398        0.8241876625
 C         -3.0017958238       -2.6252063763        0.0455970771
 C         -3.6091360836       -3.7458054492       -0.5000906176
 C         -4.7615004634       -3.5777858076       -1.2469184732
 C         -5.2994320886       -2.3111808509       -1.4620436172
 C         -4.7125195260       -1.1790338524       -0.9278611504
 C         -3.5687633975       -1.3436844653       -0.1581042428
 C         -2.0077539446        1.8637702342        0.2494440181
 N          0.1378271806        3.4335444293        0.0162658558
 C          2.1507494011        1.6991417374       -0.2325646162
 C          3.1043348098        0.7436646379       -0.5038430185
 N          2.7435651727       -0.6114594414       -0.4602120432
 C          1.6208445724       -1.1508285951       -1.0518445218
 C          0.6216887777       -0.5315294042       -1.7929498264
 C         -0.3985690949       -1.3199045498       -2.2896658847
 C         -0.4187588388       -2.6974936356       -2.0858929472
 C          0.5892832219       -3.3248998204       -1.3777911748
 C          1.6109736755       -2.5516957687       -0.8478872049
 C          2.7817279908       -2.8567323702       -0.0715405037
 C          3.2969890842       -4.0275574256        0.4633547488
 C          4.4586555917       -3.9595336563        1.2116014071
 C          5.0962336762       -2.7422104796        1.4386550762
 C          4.6022787792       -1.5616361704        0.9153461895
 C          3.4494559654       -1.6267606973        0.1442672046
 C          4.4041286242        1.1322830112       -0.8608260578
 H          5.6984704373        2.7927699569       -1.2073176325
 H          3.9951630353        4.4916306517       -0.7901274942
 H          2.3648354900        5.8930531758       -0.2729090851
 H          0.2891442607        7.2078311885        0.0332267358
 H         -1.8852749195        6.0607739989        0.3282715513
 H         -3.6224765025        4.7897370932        0.8341943213
 H         -5.4566768790        3.2289426812        1.2362000236
 H         -5.0988716802        0.7907134870        1.1133077543
 H         -0.6003460277        0.5602087730        1.9925173662
 H          1.1219617275       -0.9794636575        2.8455170988
 H          0.9641551834       -3.3906503209        2.4621446981
 H         -0.9353855763       -4.3456608546        1.1962985935
 H         -3.1855812483       -4.7270894547       -0.3483783383
 H         -5.2497110838       -4.4382009922       -1.6795944393
 H         -6.1910195451       -2.2108205653       -2.0627912791
 H         -5.1224483508       -0.1985595474       -1.1148910492
 H         -1.0539525640        1.4879370433       -0.0822151896
 H          1.1698312954        1.3978661641        0.0960923795
 H          0.6444474086        0.5292753457       -1.9876408187
 H         -1.1953725051       -0.8591220020       -2.8546635106
 H         -1.2315955072       -3.2787660998       -2.4943194871
 H          0.5845998715       -4.3949829382       -1.2380552679
 H          2.7962097784       -4.9702439445        0.3024751927
 H          4.8759369780       -4.8603489446        1.6362244693
 H          5.9925014987       -2.7193237094        2.0404115570
 H          5.0893495773       -0.6189714167        1.1116637531
 H          5.1465634397        0.3900197700       -1.1067752792
  71
  -109.870957036900       3.931276243770454E-002 !
 C          4.0399696416        2.4629736168       -2.5095372360
 C          3.2109481574        3.4388941258       -1.9991855847
 C          2.0209171365        3.0848500620       -1.3333905751
 C          1.1232207125        4.0012388859       -0.6787293539
 C          1.2080801502        5.4155076652       -0.6797726736
 C          0.2725209157        6.1271362548        0.0536012558
 C         -0.7279782962        5.4887982375        0.7678336763
 C         -0.7781818215        4.0731942630        0.7293847996
 C         -1.7602377940        3.2295062569        1.3591752189
 C         -2.9206716116        3.6765863155        2.0215397718
 C         -3.8401518550        2.7702798399        2.5041833984
 C         -3.6718914831        1.4000284382        2.3383118379
 C         -2.5127811034        0.9390855091        1.6973418591
 N         -2.3115237156       -0.4252909600        1.4389403883
 C         -2.4711097280       -1.4682747569        2.3213645474
 C         -2.7873625276       -1.4398307456        3.6732083671
 C         -2.8540677180       -2.6456132127        4.3457358976
 C         -2.6074304055       -3.8536056198        3.6970203418
 C         -2.2701845161       -3.8869504973        2.3560663230
 C         -2.1926582825       -2.6899834453        1.6607627504
 C         -1.8428137768       -2.3498715097        0.3086986763
 C         -1.4823015157       -3.0981089948       -0.8014541609
 C         -1.1887185214       -2.4383228943       -1.9807178658
 C         -1.2821135940       -1.0515406506       -2.0651948789
 C         -1.6616120209       -0.2860789767       -0.9789620854
 C         -1.9193089260       -0.9394263533        0.2201846411
 C         -1.5695616454        1.8399239917        1.2565576350
 N          0.1450508334        3.4377815144        0.0185910766
 C          1.7081827581        1.7162342166       -1.2526781263
 C          2.5652891410        0.7423655530       -1.7144977718
 N          2.2530683375       -0.6018015179       -1.4616574283
 C          2.3290043375       -1.6555321239       -2.3427538747
 C          2.6399455344       -1.6554353549       -3.6962246819
 C          2.6155278950       -2.8652964241       -4.3642701874
 C          2.2842634375       -4.0501876035       -3.7103124836
 C          1.9500605402       -4.0537612646       -2.3684400012
 C          1.9630293338       -2.8516035970       -1.6777877546
 C          1.6465284447       -2.4840792834       -0.3248650401
 C          1.2350650568       -3.2014858409        0.7880203731
 C          1.0017688420       -2.5205216474        1.9686092998
 C          1.2068986872       -1.1457879884        2.0521101922
 C          1.6375754345       -0.4128464580        0.9626064475
 C          1.8317474273       -1.0838520614       -0.2388009162
 C          3.7527670601        1.1103553622       -2.3637818850
 H          4.9512625234        2.7510550954       -3.0139095170
 H          3.4831364829        4.4775739680       -2.1034506493
 H          1.9838009503        5.9123027332       -1.2375655592
 H          0.3244588770        7.2074271291        0.0687011650
 H         -1.4534759339        6.0417479278        1.3403065764
 H         -3.0997944734        4.7334589084        2.1429466986
 H         -4.7285744713        3.1298007762        3.0034881576
 H         -4.4313722208        0.7055443180        2.6600034330
 H         -2.9615131916       -0.5061954625        4.1852210981
 H         -3.0982633130       -2.6514303961        5.3975378097
 H         -2.6717435867       -4.7750828996        4.2561832597
 H         -2.0632850746       -4.8230582323        1.8600336270
 H         -1.4305997481       -4.1744201853       -0.7437033048
 H         -0.8923181185       -3.0015186203       -2.8526701499
 H         -1.0596312406       -0.5635627779       -3.0025788575
 H         -1.7663278618        0.7838165130       -1.0685476186
 H         -0.6505513514        1.4798723718        0.8252912420
 H          0.7639697768        1.4324083970       -0.8190296625
 H          2.8798779219       -0.7393733866       -4.2134204598
 H          2.8546035892       -2.8930740533       -5.4168911260
 H          2.2801686614       -4.9757760166       -4.2663601832
 H          1.6771433085       -4.9699210290       -1.8671054447
 H          1.0986926050       -4.2704225798        0.7315001377
 H          0.6664667395       -3.0583309838        2.8424909459
 H          1.0322336383       -0.6417926907        2.9911280647
 H          1.8289483308        0.6449857582        1.0516589105
 H          4.4450375480        0.3576054157       -2.7053642693
  71
  -109.869573382700       9.091805135921435E-003 !
 C          3.9297261718        2.4285959234       -2.6460446421
 C          3.1049040068        3.4159789158       -2.1493832370
 C          1.9412292780        3.0748504353       -1.4347124891
 C          1.0634756070        3.9979563220       -0.7584732282
 C          1.1250915465        5.4107540884       -0.7910214000
 C          0.2278105511        6.1217712484       -0.0077038955
 C         -0.7123213948        5.4818736596        0.7821739869
 C         -0.7487154476        4.0660036187        0.7663885370
 C         -1.6842209182        3.2142759401        1.4525374055
 C         -2.7972832454        3.6418713869        2.2036162381
 C         -3.6853398347        2.7202944713        2.7160291933
 C         -3.5397727365        1.3556323356        2.4892210706
 C         -2.4253089247        0.9124509335        1.7618519816
 N         -2.2486330220       -0.4364443719        1.4207751910
 C         -2.3870321102       -1.5343745022        2.2375549170
 C         -2.6711051882       -1.5979566442        3.5955182948
 C         -2.7293948940       -2.8465351112        4.1856519082
 C         -2.5057457883       -4.0094971481        3.4511488192
 C         -2.1951687131       -3.9524997943        2.1051455418
 C         -2.1241289451       -2.7108212628        1.4924593027
 C         -1.7999187581       -2.2845117087        0.1593135392
 C         -1.4446397342       -2.9599045208       -0.9983337105
 C         -1.1790409265       -2.2267259173       -2.1406931591
 C         -1.3034840120       -0.8403690140       -2.1426937371
 C         -1.6739512680       -0.1468792078       -1.0051415655
 C         -1.8882329331       -0.8724016051        0.1604393583
 C         -1.5029901921        1.8274045501        1.3051507877
 N          0.1375110558        3.4327201393        0.0052725749
 C          1.6420454380        1.7077433275       -1.3047940499
 C          2.4998350913        0.7236575045       -1.7447067124
 N          2.2050577955       -0.6088557572       -1.4200513195
 C          2.2701298831       -1.7082542400       -2.2439490762
 C          2.5781007523       -1.7844042266       -3.5959626389
 C          2.5482641540       -3.0292064150       -4.1960058731
 C          2.2137899289       -4.1752624199       -3.4773256277
 C          1.8806311749       -4.1033732884       -2.1374603790
 C          1.8994471773       -2.8649881350       -1.5143149775
 C          1.5901494336       -2.4243860341       -0.1822239556
 C          1.1722356216       -3.0788010006        0.9665018772
 C          0.9531667879       -2.3359182108        2.1124443759
 C          1.1807551365       -0.9627391204        2.1261772440
 C          1.6155296485       -0.2915221132        0.9982616361
 C          1.7899453220       -1.0237795084       -0.1697484387
 C          3.6663447711        1.0794188537       -2.4357403826
 H          4.8226824156        2.7063925135       -3.1876608389
 H          3.3622926099        4.4527521677       -2.3005392275
 H          1.8548416420        5.9093809232       -1.4064933605
 H          0.2640124841        7.2027591709       -0.0145463853
 H         -1.4080372629        6.0347932540        1.3908729553
 H         -2.9629322530        4.6944608801        2.3728103309
 H         -4.5362869775        3.0646428914        3.2864203186
 H         -4.2864738148        0.6560368454        2.8287166621
 H         -2.8282817964       -0.7018149638        4.1752986143
 H         -2.9508642665       -2.9232474758        5.2396775608
 H         -2.5663385992       -4.9666555749        3.9472427969
 H         -2.0056222478       -4.8528792994        1.5407264143
 H         -1.3725022552       -4.0364771511       -1.0056527370
 H         -0.8831872823       -2.7328289313       -3.0472830073
 H         -1.1122288304       -0.2930691749       -3.0538275420
 H         -1.8044100165        0.9235380817       -1.0331427478
 H         -0.6071867035        1.4802857619        0.8191569855
 H          0.7089751647        1.4306130470       -0.8444839479
 H          2.8215099505       -0.8996621116       -4.1634205031
 H          2.7865598509       -3.1159727585       -5.2455759716
 H          2.2068544346       -5.1303952675       -3.9809169167
 H          1.6064298072       -4.9896110242       -1.5855552578
 H          1.0177735530       -4.1467234480        0.9645447764
 H          0.6121769790       -2.8246928192        3.0126245906
 H          1.0202203721       -0.4088380443        3.0392690696
 H          1.8258985450        0.7658178489        1.0355511124
 H          4.3621966431        0.3230761490       -2.7617187317
