  83
       -135.72595857
 O         -0.7815001493       -2.6454197927        2.3052388937
 P         -0.4477288280       -2.4597295415        0.8851031611
 C          0.4633253744       -3.8849931424        0.1984196087
 C          1.1228193231       -3.8582201303       -1.0239933569
 C          1.7463229213       -4.9989538209       -1.4933967604
 C          1.7098783906       -6.1696977245       -0.7514761749
 C          1.0511557945       -6.1995667259        0.4660330199
 C          0.4272135194       -5.0581211741        0.9376619752
 C         -1.8825965965       -2.3845817584       -0.2350162096
 C         -3.1070163429       -2.7901951940        0.2733971711
 C         -4.2114275947       -2.8682568263       -0.5552930750
 C         -4.0881810761       -2.5492692003       -1.8977222917
 C         -2.8659525815       -2.1340282312       -2.4050852130
 C         -1.7623460382       -2.0542341449       -1.5775855123
 C          0.6520948155       -1.0349232208        0.5365981759
 C          1.9906644451       -1.2856439532        0.6698026709
 C          2.9448193083       -0.2854368463        0.3921899972
 N          4.2493536582       -0.5490199646        0.5262393205
 C          5.1020639227        0.4186900389        0.2439595827
 C          4.6414654610        1.7156118657       -0.2011468293
 N          3.3550959164        1.9732285326       -0.3463076283
 C          2.4875703450        0.9945829759       -0.0544163897
 C          1.1039010546        1.2290206488       -0.1631370581
 C          0.1894862844        0.2518046974        0.1488386721
 C         -1.2442988016        0.5511686447        0.1209024388
 C         -1.8229406109        1.2337632478       -0.9468990354
 C         -3.1684988835        1.5310375932       -0.9484933093
 C         -3.9753307549        1.1662490706        0.1314350534
 N         -5.3342387765        1.4793421444        0.1463976897
 C         -6.0817720005        1.4580473215       -1.0346016339
 C         -7.1111577814        2.3767303758       -1.2400329206
 C         -7.8529271592        2.3416885995       -2.4048396073
 C         -7.5783544520        1.4024436411       -3.3852849050
 C         -6.5525585925        0.4924054283       -3.1882646850
 C         -5.8105003125        0.5129447337       -2.0236622681
 C         -5.9537989780        1.8234732092        1.3549505307
 C         -5.2869403557        2.6163211439        2.2885337890
 C         -5.9026547222        2.9594504875        3.4763311616
 C         -7.1901147793        2.5269743126        3.7498323076
 C         -7.8572227407        1.7400615755        2.8254151212
 C         -7.2466124093        1.3851461535        1.6379846470
 C         -3.3932262769        0.4950523590        1.2076846362
 C         -2.0493240748        0.1912863542        1.1995534874
 C          5.6175546878        2.7057236692       -0.4790047131
 S          5.2739330535        4.3142958369       -1.0164265470
 C          6.9572763312        4.6775176832       -1.0533904376
 C          7.7425957063        3.6369585324       -0.6791331751
 C          6.9860448089        2.4868187907       -0.3427502434
 C          7.4401606306        1.2056963513        0.0914954565
 C          8.7659335117        0.7490673818        0.2975440359
 C          8.8062326339       -0.5411717067        0.7134490867
 S          7.2482450118       -1.2591358742        0.8746380581
 C          6.4998770024        0.2163630616        0.3674975837
 H          1.1644658037       -2.9434109373       -1.5962681192
 H          2.2651457725       -4.9766669118       -2.4406204578
 H          2.1995019096       -7.0574703985       -1.1232915126
 H          1.0237940255       -7.1101984290        1.0463783075
 H         -0.0855784002       -5.0528199512        1.8884666049
 H         -3.1750508677       -3.0364101497        1.3228046156
 H         -5.1661446379       -3.1824760768       -0.1597710510
 H         -4.9449500145       -2.6275740069       -2.5511962298
 H         -2.7759721013       -1.8759079567       -3.4504516928
 H         -0.8114440676       -1.7258792287       -1.9695928096
 H          2.3451348419       -2.2582005625        0.9808272664
 H          0.7808195586        2.2140965798       -0.4628570034
 H         -1.2115168793        1.5225062851       -1.7893743132
 H         -3.6052665272        2.0585440575       -1.7831622128
 H         -7.3230210693        3.1161719847       -0.4819423467
 H         -8.6472464085        3.0588815605       -2.5505897347
 H         -8.1582504888        1.3806125928       -4.2952144415
 H         -6.3330319473       -0.2463123206       -3.9454834925
 H         -5.0202946194       -0.2045057486       -1.8651390782
 H         -4.2869784223        2.9621188340        2.0718605926
 H         -5.3765250307        3.5776512136        4.1887048300
 H         -7.6698719793        2.8017333988        4.6765976999
 H         -8.8586051183        1.3928377130        3.0332172081
 H         -7.7653499129        0.7664727372        0.9207914019
 H         -4.0051370046        0.2102834321        2.0497459751
 H         -1.6103518948       -0.3122832860        2.0467427715
 H          7.2699493641        5.6579772808       -1.3548154053
 H          8.8157323661        3.6801461448       -0.6405966078
 H          9.6392558541        1.3556600610        0.1416465733
 H          9.6739755598       -1.1290730305        0.9400108362
