52
 energy: -89.970084858630 gnorm: 0.000084732130 xtb: 6.7.1 (edcfbbe)
N           -5.92886821034736       -1.82988175930621       -0.78379025838143
C           -4.94404310225167       -1.28816267600054       -0.55744545337168
C           -3.72170370743215       -0.63593482215236       -0.27719097950888
C           -2.51550443961865       -1.26808707656898       -0.55641256709311
C           -1.30245869516875       -0.63985924832645       -0.29463117726249
N           -0.10925080003481       -1.28076821169003       -0.62314811292768
C            0.27782956403664       -2.55118352614743       -0.20562445280266
C           -0.42204561619215       -3.48384698091976        0.54453306090875
C            0.21968241840778       -4.66798823680162        0.86027158025695
C            1.52682940244633       -4.92111983350379        0.45053378584955
C            2.23539227066772       -3.98795255426860       -0.28021363123041
C            1.60851929274196       -2.79284753216674       -0.60922228652954
C            2.04054964768182       -1.61904648259217       -1.31700868462841
N            3.20054211289758       -1.35963978952574       -1.90056475746605
C            3.30417489786766       -0.19466054955072       -2.51464844945535
C            2.26795267962595        0.73150955659351       -2.61789327553429
C            1.04709531130046        0.47313884867104       -2.01577818573414
C            0.94852690476680       -0.71449162333064       -1.30985748529871
C           -1.29842466483043        0.64931640546189        0.28953308593136
N           -0.10115833912412        1.28185991184119        0.61964452681304
C            0.29569335379466        2.54961494931617        0.20345437359221
C           -0.39553502993012        3.48682548850560       -0.54906107524686
C            0.25513040907879        4.66658955645267       -0.86284859665541
C            1.56256083883240        4.91106828239961       -0.44876487312742
C            2.26250938562455        3.97331657587415        0.28440531778964
C            1.62665702131018        2.78240709372939        0.61139546903589
C            2.04849788719909        1.60578657694663        1.32063838063449
N            3.20463363486557        1.33873906843800        1.90838908465786
C            3.29832529880317        0.17318687026495        2.52296872524355
C            2.25570592327031       -0.74619903748363        2.62242339687824
C            1.03874636173723       -0.47978615127933        2.01595506714997
C            0.95051377016423        0.70851080349061        1.30980187489600
C           -2.50740503485964        1.28559031449986        0.55060200059503
C           -3.71761846288690        0.66113957971048        0.27137897762745
C           -4.93588472238081        1.32074087781411        0.55211557061941
N           -5.91745025361084        1.86809930049364        0.77899447191060
H           -2.51953824328460       -2.24553878837631       -1.01480722832747
H           -1.43016352850615       -3.29864209295381        0.88386478292370
H           -0.30698985296478       -5.41065857095408        1.44046723855190
H            1.99037963090235       -5.85868412732744        0.71686690280292
H            3.25273121252796       -4.16266988710875       -0.59215019906891
H            4.26498390708089        0.00223094568378       -2.97048730137095
H            2.41530713704773        1.64495688372498       -3.17164060330973
H            0.22165795924579        1.16284325374052       -2.11124206924841
H           -1.40376027818972        3.30824467814877       -0.89163156121912
H           -0.26466267671141        5.41275747941180       -1.44475434533946
H            2.03319371924252        5.84555278148459       -0.71349721352509
H            3.27996066970005        4.14139183488953        0.59961576053681
H            4.25613890095235       -0.02996696949718        2.98233561394019
H            2.39501821177620       -1.66059121108442        3.17669009355458
H            0.20844890349398       -1.16403191122228        2.10846291887132
H           -2.50513673597152        2.26316035472852        1.00877055047676
