52
 energy: -89.883953018958 gnorm: 0.000041415469 xtb: 6.7.1 (edcfbbe)
N           -5.93750381893461       -1.87197953279872       -0.76969215326189
C           -4.94809459766741       -1.31402267948029       -0.54420234930975
C           -3.75189846570158       -0.67111510293829       -0.26225139388932
C           -2.53294452938085       -1.30573423180146       -0.49844424746153
C           -1.33060279763216       -0.66902575293732       -0.27349734182913
N           -0.12206438116121       -1.28000523226560       -0.61357891495234
C            0.30498530668114       -2.52517126232997       -0.18573564378140
C           -0.36362420809342       -3.47190857083424        0.58191023583034
C            0.31504899579861       -4.63086203153312        0.91268976683450
C            1.62745801404613       -4.85055601337117        0.49610456082063
C            2.30902286448866       -3.90450716503666       -0.25027963762468
C            1.64885306405777       -2.73131553033973       -0.58692980535726
C            2.03811833790980       -1.55511304522715       -1.31054749067637
N            3.17712409171727       -1.24520069114411       -1.90250956063591
C            3.24210475313393       -0.09681421449561       -2.54630412240601
C            2.16987315382888        0.78996364127125       -2.65331881601945
C            0.96072644155186        0.48667936579377       -2.04822479285414
C            0.90378243456811       -0.69236328368841       -1.32147384113188
C           -1.32650302691086        0.67863207213506        0.26967597644237
N           -0.11441655441462        1.28121716698387        0.61211007159579
C            0.32208266998816        2.52354080907951        0.18554609103572
C           -0.33843375346207        3.47516505188018       -0.58306761067670
C            0.34881499165033        4.62963226687279       -0.91183496108634
C            1.66181439875362        4.84017494487249       -0.49239835177123
C            2.33536818004934        3.88911533562958        0.25488421973795
C            1.66652004476373        2.72028810484748        0.58959369450958
C            2.04621209758114        1.54118134628792        1.31358286094644
N            3.18177627433251        1.22324303985623        1.90791878602320
C            3.23734897316081        0.07435849068125        2.55170761414170
C            2.15871955952266       -0.80490673555245        2.65639636952401
C            0.95303201727284       -0.49312557017605        2.04873461252672
C            0.90590052346014        0.68632201865290        1.32194786882086
C           -2.52488907455334        1.32348393211120        0.49253211868625
C           -3.74770471777835        0.69716304586053        0.25417792444205
C           -4.94003240241719        1.34806580434126        0.53416494210351
N           -5.92614082543754        1.91248848756000        0.75802974968208
H           -2.54124100006245       -2.29915566454683       -0.92339934397423
H           -1.37784947277945       -3.31214150989091        0.91426006527008
H           -0.18534863026758       -5.38044331759457        1.50625317017607
H            2.12023940559392       -5.77021513905710        0.77126357141796
H            3.33048681515873       -4.05671115127598       -0.55999655731557
H            4.18851722215596        0.11933305804417       -3.02117894156163
H            2.27935837820728        1.69618104166238       -3.22587199973711
H            0.09986126833526        1.12853712622386       -2.16503239066722
H           -1.35300930972136        3.32248051047231       -0.91768224363154
H           -0.14523743847944        5.38293214115379       -1.50601341741118
H            2.16142855655148        5.75659913316526       -0.76602901157012
H            3.35721377031792        4.03423157224265        0.56673215086396
H            4.18116505886479       -0.14849417184480        3.02863153952764
H            2.26061428276516       -1.71185594771551        3.22919165893634
H            0.08743110584345       -1.12891490149525        2.16365100253476
H           -2.52717803207731        2.31690616334915        0.91754791597569
