52
 energy: -89.885600690277 gnorm: 0.000032240412 xtb: 6.7.1 (edcfbbe)
N           -5.93836604839652       -1.82949851269446        0.87796112824728
C           -4.95052069976173       -1.28190481903524        0.62217646451722
C           -3.75481194293132       -0.65366454287604        0.30650899757190
C           -2.53519800230041       -1.26552089118028        0.59107839231743
C           -1.33106439663679       -0.64595932217067        0.32629480002954
N           -0.12945681750455       -1.23791490474172        0.71406547184450
C            0.91788816584210       -0.60297770236129        1.36356013532030
C            0.92874120535634        0.61916922849754        2.02174381061943
C            2.11018755659303        1.01886997499180        2.62039003360420
C            3.25083248845556        0.21906579911667        2.58342186382892
C            3.23196096266677       -1.02524652509425        1.97931879927501
C            2.05526596973046       -1.44444979106350        1.37265969922154
C            1.65548987968828       -2.66196696939912        0.73010923382357
N            2.32983531218171       -3.76891031623700        0.48423649289119
C            1.71418952967696       -4.74588618905152       -0.14880857323134
C            0.39813627216471       -4.65690233232706       -0.60611492476587
C           -0.34745201298411       -3.51973039410552       -0.33775388903527
C            0.28610550380133       -2.50012042535226        0.35710376254975
C           -1.32752598728201        0.65407483517201       -0.32386408601305
N           -0.12287918425900        1.23860801253238       -0.71345146362494
C            0.91964625540365        0.59732042192183       -1.36445389695037
C            0.92206630657947       -0.62475398520757       -2.02285848342654
C            2.10017642693466       -1.03159774099906       -2.62326797285753
C            3.24579503355856       -0.23886448936578       -2.58768512644423
C            3.23545300863436        1.00538501055907       -1.98324029393305
C            2.06218422266488        1.43174922723071       -1.37494385726930
C            1.67083520551741        2.65157623341548       -0.73158480341305
N            2.35239323775777        3.75423369540684       -0.48631683554138
C            1.74364940077408        4.73483395957563        0.14780603795405
C            0.42766944685778        4.65393994512281        0.60682532224082
C           -0.32531472232801        3.52148121705061        0.33918811185497
C            0.30098447282077        2.49814318268916       -0.35677528684872
C           -2.52816113547330        1.28131577382440       -0.58639073930815
C           -3.75113501468215        0.67738142968379       -0.29928601346891
C           -4.94339265489667        1.31347284934691       -0.61224473787929
N           -5.92816968127234        1.86768208384442       -0.86561351990350
H           -2.54364282592769       -2.22596751651732        1.08665590288927
H            0.03895644034681        1.22666078112976        2.08849262288636
H            2.14403598317648        1.96691922304151        3.13487407391135
H            4.15668798019006        0.57307262775649        3.05049418666612
H            4.09966212547104       -1.66500216847645        1.97537372255958
H            2.29276112685873       -5.64660416304549       -0.29815617308243
H           -0.04202900527521       -5.48413464445586       -1.13862560213240
H           -1.37878646822404       -3.44609208268307       -0.64948698234951
H            0.02849290684331       -1.22679323927927       -2.08836115371724
H            2.12740815684695       -1.97970784373492       -3.13804067629774
H            4.14883649508175       -0.59833633697627       -3.05603253120885
H            4.10710848036270        1.63974659440734       -1.98025960242222
H            2.32799805372366        5.63190000161980        0.29663888311344
H           -0.00662173263243        5.48384739463070        1.14001447633255
H           -1.35667278504341        3.45414019196029        0.65226577643848
H           -2.53136952599704        2.24178564535421       -1.08198440385215
