  90
       -133.81286116
 C          8.1537555470        3.2977587692        1.2450772249
 C          8.1471218600        1.9275074572        0.5410956129
 C          9.5722295189        1.5527913933        0.0917685160
 C          7.2631687662        2.0120733309       -0.6852703232
 C          7.5672011856        2.9230043439       -1.6875423158
 C          6.8133319423        3.0206912615       -2.8424810593
 C          5.7314300744        2.1735609505       -3.0224345181
 C          5.4061208754        1.2600611867       -2.0455434959
 C          6.1481680443        1.1784393109       -0.8585069240
 N          5.7860005526        0.2626259369        0.1087052490
 C          4.6408783299       -0.5489653960       -0.1024501835
 C          4.7831868206       -1.9115527855       -0.3753305922
 C          3.6796352221       -2.7005526951       -0.5837593287
 C          2.3752109284       -2.1652600962       -0.5158851971
 C          1.1907327234       -2.9396253831       -0.7083152532
 C          1.1748844354       -4.3222258643       -1.0926527886
 C         -0.0157441705       -4.9440091454       -1.2869115329
 C         -1.2466118444       -4.2528670299       -1.1160359214
 C         -2.4356438304       -4.9530019147       -1.2104311757
 N         -3.3920504192       -5.6022108737       -1.3071679876
 C         -1.1497137793       -2.8657405559       -0.7473855531
 C         -2.3079657365       -2.0057727108       -0.5388157701
 C         -2.1859244420       -0.9003498296        0.3139721747
 C         -3.2449554895       -0.0480121864        0.5246184555
 C         -4.4583722936       -0.2757905093       -0.1211779626
 N         -5.5536747688        0.6071146586        0.0940990693
 C         -6.5714727939        0.2194246000        0.9412570291
 C         -6.5074202464       -1.0307762703        1.5710314808
 C         -7.5105749112       -1.4474982620        2.4169961961
 C         -8.5967851759       -0.6217959418        2.6586117941
 C         -8.6552422477        0.6195251320        2.0522747145
 C         -7.6598409639        1.0664948321        1.1944492011
 C         -7.7674833484        2.4445658371        0.5748044489
 C         -7.8069177261        3.4896346383        1.7057980831
 C         -9.0606716356        2.5126467207       -0.2593578608
 C         -6.5931134225        2.7515904064       -0.3311082790
 C         -6.5327337210        3.9725921715       -0.9883720518
 C         -5.4931875181        4.2952495239       -1.8411627408
 C         -4.4830965530        3.3731050453       -2.0624836049
 C         -4.5154103986        2.1542933949       -1.4228135247
 C         -5.5562501870        1.8313685131       -0.5415959436
 C         -4.5906697812       -1.3615842248       -0.9803774762
 C         -3.5289220095       -2.2170203552       -1.1861894873
 N          0.0186291603       -2.3173708810       -0.5524512068
 C          2.2567287925       -0.7829838998       -0.2347646509
 C          3.3568364678        0.0057427551       -0.0368759778
 C          6.5032686380        0.1199240142        1.2796113759
 C          6.0606279892       -0.7846574060        2.2552685030
 C          6.7630150603       -0.9638941566        3.4253367715
 C          7.9200475004       -0.2361571881        3.6539779098
 C          8.3432824358        0.6804060405        2.7093139826
 C          7.6545210213        0.8841605561        1.5214981579
 H          7.1437959031        3.5603151805        1.5543820192
 H          8.7878876197        3.2778490858        2.1267271356
 H          8.5216416398        4.0733598143        0.5795464617
 H         10.2442039973        1.4970531085        0.9434722903
 H          9.9649695131        2.2879998140       -0.6048107817
 H          9.5616208725        0.5829382251       -0.4021771415
 H          8.4182271978        3.5765594236       -1.5705240811
 H          7.0758557817        3.7427266116       -3.6000025497
 H          5.1442178117        2.2208329388       -3.9265844358
 H          4.5737735478        0.5911882123       -2.1947027601
 H          5.7768548709       -2.3336196291       -0.4310890838
 H          3.8243432822       -3.7466767775       -0.8027148463
 H          2.1023841291       -4.8456919586       -1.2544670477
 H         -0.0555915700       -5.9846909215       -1.5793763143
 H         -1.2436088071       -0.7360816540        0.8131009841
 H         -3.1493282288        0.7983227212        1.1894834181
 H         -5.6602325304       -1.6723244369        1.3896242806
 H         -7.4431742437       -2.4158126546        2.8885006446
 H         -9.3893153554       -0.9388174238        3.3184514399
 H         -9.5029938857        1.2548442331        2.2588738123
 H         -7.9014256332        4.4936844256        1.3020127177
 H         -8.6468190637        3.3093213919        2.3706166520
 H         -6.8896022304        3.4384461143        2.2894519088
 H         -9.1833119942        3.4956467637       -0.7049759932
 H         -9.0246933395        1.7749327339       -1.0587738212
 H         -9.9308637408        2.3077293536        0.3575537675
 H         -7.3179099614        4.6972263606       -0.8354126777
 H         -5.4763109209        5.2548109521       -2.3340985821
 H         -3.6709223140        3.6017262156       -2.7354168239
 H         -3.7335107590        1.4341147455       -1.6038452392
 H         -5.5306556170       -1.5269667415       -1.4858345644
 H         -3.6415040638       -3.0454890972       -1.8651409708
 H          1.2622696016       -0.3677405933       -0.1769421981
 H          3.2509133455        1.0588410983        0.1823847554
 H          5.1524745988       -1.3408204786        2.0859631315
 H          6.4050267856       -1.6678446069        4.1609484972
 H          8.4814082523       -0.3716383568        4.5653180873
 H          9.2359990493        1.2528732344        2.9103250936
