  61
        -95.40537924
 C          2.5295974996       -3.6639441107        1.4167946604
 C          1.2448520563       -3.7517948913        0.9197437740
 C          0.6639652013       -2.6612779395        0.2616132777
 C         -0.7095557646       -2.6773738956       -0.2287908131
 C         -1.2972475540       -3.8138672591       -0.8051904084
 C         -2.5893919435       -3.7608962850       -1.2914825420
 C         -3.3372936776       -2.5977979844       -1.2155641702
 C         -2.7731292456       -1.4620939967       -0.6178592303
 N         -3.4869109444       -0.2693996917       -0.5161047891
 C         -2.9188083783        0.9933875374       -0.6622228612
 C         -1.6987389452        1.3489843737       -1.1939592499
 C         -1.3632103294        2.7074287837       -1.2219284748
 C         -2.2522435200        3.6684167486       -0.7533489429
 C         -3.5012190597        3.3275663885       -0.2620507859
 C         -3.8505222683        1.9714971899       -0.2101007080
 C         -5.0160452795        1.2738977149        0.1730795444
 N         -6.1814374722        1.7017280912        0.6777866819
 C         -7.0906399731        0.8082757566        1.0240456129
 C         -6.8875267294       -0.5573013918        0.9570909974
 C         -5.7033229403       -1.0553065447        0.3696900359
 C         -4.7676979472       -0.1280202439       -0.0373930683
 C         -1.4753923281       -1.5174979635       -0.1280471860
 C          1.4322934510       -1.5090109539        0.0833121027
 C          2.7195027336       -1.4201351216        0.5873973013
 N          3.4436265604       -0.2349273690        0.4008043501
 C          2.9402175325        1.0392111436        0.5710431123
 C          1.6995058309        1.4484528034        1.0425094731
 C          1.4474849643        2.8057910940        1.1137441659
 C          2.4110581500        3.7417877241        0.7464061220
 C          3.6631069506        3.3432195460        0.3152957624
 C          3.9348876769        1.9854815703        0.2276556569
 C          5.0936268490        1.2321762746       -0.1672912641
 C          6.3564927209        1.5906039672       -0.6151563973
 C          7.2487165456        0.5889242745       -0.9509627399
 C          6.8863827281       -0.7527574301       -0.8623387369
 C          5.6336216268       -1.1342271796       -0.4186694741
 C          4.7432825844       -0.1346076106       -0.0499978245
 C          3.2737590153       -2.5024106609        1.2740020922
 H          2.9586144843       -4.5042609640        1.9425377198
 H          0.6697825917       -4.6533844188        1.0662320429
 H         -0.7239854466       -4.7240030290       -0.8919076962
 H         -3.0222086194       -4.6361926985       -1.7531739596
 H         -4.3262554128       -2.5490663090       -1.6416507534
 H         -1.0210635516        0.6119482240       -1.5964928324
 H         -0.4030005256        3.0052371065       -1.6128686180
 H         -1.9588371661        4.7078390414       -0.7759240439
 H         -4.1947038841        4.0760511312        0.0852817213
 H         -8.0350441457        1.2121129526        1.3627563248
 H         -7.6617902544       -1.2362437005        1.2727180678
 H         -5.5735346983       -2.1155064437        0.2310167276
 H         -1.0774470989       -0.6574152014        0.3870606162
 H          1.0373993905       -0.6868962232       -0.4925849860
 H          0.9553051872        0.7343681601        1.3580333437
 H          0.4821757205        3.1447779288        1.4592147988
 H          2.1764087779        4.7935851956        0.8116256779
 H          4.4160908210        4.0701267738        0.0513448871
 H          6.6312922450        2.6306899515       -0.7029622491
 H          8.2375555044        0.8469623882       -1.2987729276
 H          7.5970165471       -1.5123126645       -1.1511640283
 H          5.3551249929       -2.1757407309       -0.3766494948
 H          4.2588696852       -2.4223441488        1.7059135835
