100
 energy: -152.651561630157 gnorm: 0.000035928789 xtb: 6.7.1 (edcfbbe)
C           -6.58143717967966        4.58508804945101       -0.30010310125377
C           -5.16894386198682        5.08408553193010        0.03994074801871
C           -4.79982569071663        6.18870209338466       -0.95497560451721
C           -5.15683727805971        5.68914170871794        1.45175441490529
C           -4.20650584091511        3.90703781716997       -0.00658019767633
C           -3.11902394119132        3.84968535080925       -0.87034054214663
C           -2.27522119760898        2.75363758658375       -0.89606544387935
C           -2.49439017087232        1.67595096165414       -0.04771750692606
N           -1.62360370652767        0.57753735546344       -0.07506741838384
C           -1.94812812664769       -0.76363206319546        0.07050519701175
C           -3.30461540150039       -1.27245257263452       -0.00097445924871
C           -3.67419698014933       -2.38953913023659        0.75346530181261
C           -4.95130054123788       -2.90244300085966        0.68574828683239
C           -5.91519277828447       -2.31401524165040       -0.13407038350189
C           -7.28327933984506       -2.83053365474609       -0.18612100018025
C           -8.37346132505367       -1.99887002690393       -0.33426442667830
C           -9.69551643437307       -2.47413190105460       -0.38959097184272
C           -9.98971958832371       -3.80765842591232       -0.30623421567903
C           -8.91703040720434       -4.70150038055710       -0.15734495942243
N           -8.98301923181381       -6.03193653570980       -0.06734022013657
S           -7.48941608812591       -6.61116446159655        0.08096226826301
N           -6.68703404067124       -5.21789064635639        0.04222119508724
C           -7.56032226843180       -4.21847758323815       -0.08842231043553
C           -5.54108487078750       -1.21195241691616       -0.90618847229695
C           -4.26090171857547       -0.70662972176335       -0.84948393742896
C           -0.79100759103954       -1.52219718410634        0.17439218523632
C            0.27664781403117       -0.61793928087071        0.09499769708779
C           -0.25708160179210        0.66965293498350       -0.06806174784154
C            0.81069125054200        1.57359175356849       -0.14930512306157
C            1.96760653287344        0.81483384671129       -0.04548056537885
C            3.32293006784090        1.32844893223683        0.02491428294089
C            4.27759350147925        0.77946568648672        0.88554952388286
C            5.54849720868807        1.30695139679271        0.95744768942120
C            5.91908055359956        2.40266791521287        0.17496016921091
C            7.26920081465992        2.96137318122271        0.26178110117086
C            7.96954344636710        3.00449078712680        1.44905954075250
C            9.26666735654094        3.53710926318120        1.55318135095772
C            9.92841546069906        4.04926188590440        0.47090450899573
C            9.26350527147297        4.02900539834483       -0.76564589461369
N            9.72849603096156        4.46805700821576       -1.93755321804482
S            8.60424542952347        4.22134941165389       -3.06118744848586
N            7.47692157950792        3.55272580703651       -2.12931288699322
C            7.92997462465737        3.49207607902979       -0.87633961593753
C            4.96414323265669        2.95597566649366       -0.67915687648573
C            3.69088750243532        2.43375556653088       -0.74696101801270
N            1.64341547985627       -0.52551005594700        0.10305550046978
C            2.51286438631485       -1.62522661758918        0.07742089392096
C            3.58276334484979       -1.68248477374089       -0.80734362463224
C            4.41968782160352       -2.78345096329866       -0.82039436523583
C            4.21346991428292       -3.86486383530351        0.02899237894496
C            5.11065137278412       -5.09325201650625        0.04284816202899
C            4.26812839611794       -6.33302560606610       -0.29272410016482
C            5.72741238644746       -5.24664440430139        1.44142553461749
C            6.25185249945694       -5.00222290828661       -0.97475200902015
C            3.12534298685407       -3.79856616231449        0.89715600815712
C            2.28736297085318       -2.70246153473100        0.92805108468065
C           -3.56471217634257        1.72795767648655        0.84027134133873
C           -4.40413119274872        2.82276350079082        0.84712824623585
H           -7.28520957774529        5.41473756241083       -0.28466319819821
H           -6.91980327241736        3.83780944876535        0.41245285812043
H           -6.59448897617496        4.14011974194239       -1.29333730983641
H           -5.51936115488709        7.00133363950668       -0.87626128829484
H           -3.81285456847377        6.59333353402473       -0.74245726297557
H           -4.82253678249658        5.81927820276832       -1.97777707913682
H           -5.82518317928936        6.54659428134256        1.49667674718401
H           -4.15293651026467        6.02023786387673        1.71093428626530
H           -5.48021716393962        4.96733041617844        2.19664157084708
H           -2.91306702855193        4.66078111318310       -1.54929034070198
H           -1.44621429641120        2.72424380570285       -1.58731058662113
H           -2.94971205014594       -2.84347793631500        1.41302138210519
H           -5.21843990758522       -3.75985118226526        1.28362599748561
H           -8.21168727017097       -0.93272876496022       -0.38975095174787
H          -10.49584867881016       -1.75711963215514       -0.49914203557347
H          -10.99938317829469       -4.18311404566543       -0.34968201164055
H           -6.25497558975978       -0.76771642742004       -1.58437596287527
H           -3.99129931900471        0.12632531942854       -1.48160380340074
H           -0.75197831386817       -2.59100028743097        0.24654038322919
H            0.77192086306418        2.64227465252767       -0.22349807298816
H            4.01602586123828       -0.06130615567997        1.51081619434992
H            6.27310682436693        0.85006215377149        1.61560220323637
H            7.49754983680102        2.63369490869565        2.34660939961880
H            9.74481305273883        3.54091227650229        2.52165517893896
H           10.92302043965473        4.45949861061943        0.53915658451725
H            5.22935074060621        3.80508000526876       -1.28949748169372
H            2.96751388879925        2.87226228265720       -1.41818030330279
H            3.76102173563423       -0.86274792705948       -1.48733746215204
H            5.23924527990587       -2.78221580378573       -1.51990943593274
H            3.80965863893420       -6.22189272671711       -1.27355504728985
H            3.47781129872808       -6.48598713777336        0.43697150117277
H            4.89704527917421       -7.22078983264213       -0.30419502355604
H            6.38772526480852       -6.11108081496660        1.46603513930649
H            4.96169805266318       -5.38230288706780        2.20022710580843
H            6.30782352901074       -4.36178659116515        1.69593659963830
H            6.89633863928670       -4.15106295694549       -0.76638356844258
H            6.85854344968361       -5.90405184808334       -0.91951293140317
H            5.86693033335618       -4.91899952205460       -1.98864139912982
H            2.92254493304265       -4.61459777970748        1.57404310184376
H            1.45878565233818       -2.66855449020604        1.61952737086938
H           -3.73648867541816        0.90859055786266        1.52223582337903
H           -5.22784376757884        2.82617832625284        1.54462218251974
