100
 energy: -152.652042284470 gnorm: 0.000073149257 xtb: 6.7.1 (edcfbbe)
C           -5.73120523263209        5.21418897887886       -0.23614174660571
C           -4.24430473385487        5.47617699458769       -0.52024241426624
C           -4.06969113630516        5.98005510557919       -1.96075959528258
C           -3.76217179115892        6.57555457557292        0.43121502957710
C           -3.47594013720188        4.17470854404160       -0.35018491545178
C           -2.45419625750288        4.01138649701458        0.57793691439011
C           -1.79615382369649        2.80270687277780        0.72134482402840
C           -2.14190207878802        1.71556174850575       -0.07059412316367
N           -1.46736763612127        0.49564934399193        0.08025761646138
C           -2.00610926794825       -0.77952804293324       -0.00971956454797
C           -3.43174719572019       -1.04531853096117        0.02483091006171
C           -4.30445341264738       -0.26827670916705        0.79237051024855
C           -5.65476259474760       -0.53810942685254        0.81897101135327
C           -6.18710863973251       -1.60777737052663        0.09777626069179
C           -7.62159913681860       -1.89491485833482        0.12771320746200
C           -8.11594292222754       -3.18189622355632        0.10539419260914
C           -9.49137119604187       -3.47230301525848        0.13694430605171
C          -10.43902839829943       -2.48669386193681        0.18684348796927
C           -9.99203453991743       -1.15566517619708        0.20423766487930
N          -10.74340470007724       -0.05236057056999        0.23590783727547
S           -9.77250031531956        1.23028588874730        0.22719316192453
N           -8.36041097962944        0.46223435816480        0.18699448273267
C           -8.58282111064274       -0.85278061875466        0.18102927222553
C           -5.31298798767226       -2.40209268818312       -0.64718715430848
C           -3.96350083714685       -2.12519426248483       -0.68531040069805
C           -0.99057358952015       -1.72492165291811        0.00130814800778
C            0.20779280025747       -1.00774244656709        0.11744932729165
C           -0.10696675437503        0.35964066075436        0.15147140622461
C            1.09454371615867        1.07936033242633        0.19734484099148
C            2.11026312128043        0.13446874744529        0.21285677205135
C            3.52356445549390        0.40467871346541        0.39941607095181
C            4.33255408415834       -0.41181604987620        1.19485700321260
C            5.66155764390893       -0.10792898531082        1.39439011852902
C            6.23818154130193        1.02061017894985        0.80784901645072
C            7.64661372029653        1.34613374340923        1.03780836673059
C            8.26432807486274        1.10855441929420        2.24770792331913
C            9.61383605681357        1.41906227330929        2.49163002444865
C           10.41283242561486        1.97891263924380        1.53259994167820
C            9.83690039262343        2.23952217738089        0.27881473192391
N           10.43808618710420        2.76756984657728       -0.78986397976318
S            9.36938870434908        2.85623393071303       -1.98888057796897
N            8.09761571257862        2.23869059181416       -1.22246519782229
C            8.45140433438906        1.93070924686793        0.02602855565792
C            5.43104942084004        1.83646384241988        0.01374820088615
C            4.10000623564380        1.53807008973753       -0.18043881347682
N            1.57045147572858       -1.14271964924502        0.16349625558433
C            2.25206603637655       -2.35302841018019       -0.02277323833411
C            3.34054641284208       -2.44452117934826       -0.88522406893891
C            3.98162316441991       -3.65315888291169       -1.06268936310534
C            3.56154094139384       -4.81194075924065       -0.41134112202291
C            4.30494448775411       -6.11771143239835       -0.64839742524928
C            4.24351496088669       -6.46573190876289       -2.14331964903976
C            3.70813518112781       -7.28867860389644        0.13845835516573
C            5.76832665763980       -5.94468866543329       -0.21474041839159
C            2.46240668970554       -4.70688198935615        0.43302038838125
C            1.81617464820111       -3.49950911205224        0.62930089708479
C           -3.14097802936946        1.87159159391526       -1.02679071119708
C           -3.79662127057646        3.07882960127839       -1.14995291660219
H           -6.30064272928229        6.13483183649893       -0.34561415069675
H           -5.86083361519303        4.84621943024656        0.77981994497765
H           -6.14190999972893        4.47510038777754       -0.91846507248600
H           -4.59449801703900        6.92397467403688       -2.09254811914119
H           -3.01519385448122        6.13773410807148       -2.17946613629656
H           -4.46446743451099        5.26876243027564       -2.68087925989343
H           -4.34673273975793        7.47850124050591        0.26625920524525
H           -2.71633044853542        6.81628451034553        0.25406697163920
H           -3.89016981030786        6.27878538305239        1.46973589838924
H           -2.15688699411110        4.82627748969543        1.21740803753889
H           -1.01776292978029        2.69372190938582        1.46204977052048
H           -3.91642181063409        0.54730356530657        1.38393247891418
H           -6.31041635360388        0.07602367585092        1.41617949911000
H           -7.42031496963852       -4.00746805183872        0.08541530982377
H           -9.79859469640681       -4.50774479954153        0.12528874012311
H          -11.49579127577463       -2.69884778404225        0.21120893047265
H           -5.70334918432502       -3.22366144138254       -1.23018456289150
H           -3.30715654026679       -2.73442445865723       -1.28910521986119
H           -1.12892889389770       -2.78744073638256       -0.02885750208795
H            1.23056644378376        2.14094681415347        0.25619728136676
H            3.91109925177106       -1.28488420271290        1.67076153572897
H            6.26870153502732       -0.76617816799937        1.99865141936313
H            7.68465965997143        0.68621120339861        3.05483538835121
H           10.02117853426403        1.20882876904518        3.46963840282986
H           11.44853426986930        2.22111982014926        1.70833350796164
H            5.85720754996359        2.71384961550919       -0.44717031931228
H            3.49204969833249        2.17928614978644       -0.80130745885350
H            3.68066025789300       -1.56759407249433       -1.41552835181292
H            4.82502644091172       -3.68566506883326       -1.73550547988394
H            3.20837561403969       -6.56561730658567       -2.46434233832108
H            4.75488457070486       -7.40796501127285       -2.32905643780352
H            4.71559640293791       -5.69757553798980       -2.74952728800047
H            3.75270677120458       -7.10495029659391        1.20958348323939
H            4.27741185048072       -8.19228938354737       -0.07055925898371
H            2.67531618495222       -7.46901556681650       -0.15102789923619
H            5.81993047452000       -5.67818537631160        0.83930382376005
H            6.31482123453345       -6.87382845324442       -0.36302057774918
H            6.26201719732345       -5.16437422504786       -0.78753032858746
H            2.09107405030481       -5.56935942242031        0.96171884118087
H            0.97275038494373       -3.43976590876057        1.30105176263260
H           -3.40342028546695        1.04386578684750       -1.66861417524633
H           -4.57346473072846        3.16076461940573       -1.89456905103143
