100
 energy: -152.598030708915 gnorm: 0.000114823158 xtb: 6.7.1 (edcfbbe)
C           -5.64086077700074        5.31449269791285       -0.34290786544160
C           -4.13435321549678        5.55181950587239       -0.52841171752588
C           -3.86102576445824        6.08435864453995       -1.94304157195762
C           -3.68955678948387        6.61794700587711        0.47752318055082
C           -3.40452473351888        4.23116761730403       -0.34413838448359
C           -2.44643970787409        4.02622773613705        0.64204041943352
C           -1.81813948950806        2.80236501677645        0.79361055084993
C           -2.13756337331468        1.74568231145730       -0.04684068359538
N           -1.48007148204020        0.50803516286047        0.10490935930313
C           -2.01930029558784       -0.75568646311903        0.01676731384879
C           -3.42271196280223       -1.04481697905852        0.04369211771991
C           -4.34964800000787       -0.21250975214600        0.69793934321947
C           -5.68522646948192       -0.52043075745583        0.71748317514010
C           -6.18150641984569       -1.67667822232779        0.09138497424162
C           -7.59582435688792       -1.98970757123687        0.10653752622525
C           -8.06022063406993       -3.30467876261561        0.02190254453974
C           -9.41229283209136       -3.63150831187497        0.03979538386552
C          -10.39270267266218       -2.66435343971313        0.12648350917431
C           -9.98753702723156       -1.32805344073856        0.20743088950536
N          -10.78651563375996       -0.25896426242620        0.28331645611729
S           -9.85489391214509        1.07155224969706        0.34770989245397
N           -8.39966834808506        0.33786431076808        0.28257534152031
C           -8.58805359477520       -0.97945306717589        0.21190022108906
C           -5.25024573880667       -2.51897806269516       -0.54236047015758
C           -3.91289899600427       -2.21594661615944       -0.56312381712565
C           -0.98042008366563       -1.71965474405845        0.01261636486330
C            0.19914067466234       -1.01312399699868        0.12790622225329
C           -0.11616761943845        0.37455982158264        0.16532613676499
C            1.06664518225726        1.08337135082281        0.21315520661716
C            2.10456956664175        0.11877216742328        0.24194799247529
C            3.49729121642078        0.40669228714713        0.41928076616544
C            4.36984036916284       -0.46954606671763        1.09007822927430
C            5.68943075729181       -0.14686805860298        1.27590513315418
C            6.22917226150676        1.05802141207409        0.78892229757082
C            7.62665835714706        1.38884847361241        0.97932748285686
C            8.36960574293124        0.85400150566366        2.03624543814855
C            9.71327349738714        1.14655252922943        2.24304832991937
C           10.41283481924157        1.98404699592985        1.39847599791458
C            9.72235390462858        2.55101163011910        0.32259662590445
N           10.23104371730537        3.37556698822131       -0.59826577895637
S            9.04984084398639        3.76348619830542       -1.64528326695264
N            7.84597318192853        2.89829936491595       -0.96443685136165
C            8.32253207741583        2.27257066542702        0.11107934768571
C            5.35459845879511        1.92999782231541        0.11724111089953
C            4.02834905078318        1.62367465467819       -0.04730385008698
N            1.56370008973471       -1.14671393611212        0.18563380983303
C            2.23029112016581       -2.37407569716343       -0.00151372612196
C            3.25755325892107       -2.49801967528699       -0.93084389545063
C            3.87846005758911       -3.71722743268011       -1.10827001621980
C            3.49566194796646       -4.84906231461958       -0.38872928164829
C            4.22154237935038       -6.16487628955358       -0.61957064910448
C            4.07716449250220       -6.56665286249749       -2.09514992143636
C            3.66790124054306       -7.30386060555352        0.24213022100106
C            5.70655612671046       -5.97905293221144       -0.27282605896739
C            2.45247127890398       -4.70934758306162        0.51942141403860
C            1.82482014511153       -3.49145342256539        0.71458878690839
C           -3.07363378096574        1.93838720315803       -1.05713212062453
C           -3.69706765438986        3.16161985538336       -1.19013602601672
H           -6.18305265950034        6.25049963134565       -0.45913142676533
H           -5.84229019589269        4.92115634402432        0.65162992910823
H           -6.02635004362553        4.60598547528570       -1.07086151774050
H           -4.35872645734927        7.04154457221132       -2.08271422457221
H           -2.79251956578458        6.22641137364363       -2.09339744220070
H           -4.22539619027778        5.39952528269025       -2.70361353445954
H           -4.24419032478374        7.53672892815112        0.29819000695261
H           -2.63026684095700        6.84082965917361        0.37106490203413
H           -3.88952754659397        6.30172838813548        1.49878068780572
H           -2.17644027017216        4.81972370951012        1.31867661783865
H           -1.08889881242507        2.66095326799670        1.57732991432917
H           -4.00433875402904        0.66336969842400        1.22463299999572
H           -6.37660165088647        0.12854774320960        1.23002387923337
H           -7.34232682583860       -4.10949800862873       -0.02162699391992
H           -9.69913451925598       -4.67193742881819       -0.01313934091392
H          -11.44294282293070       -2.91006976201573        0.13390492560821
H           -5.59569259167068       -3.40172366400519       -1.05853291008922
H           -3.22884210739827       -2.86288419717729       -1.09076635911362
H           -1.12374049357512       -2.78024909015230       -0.02115207059368
H            1.20793633888558        2.14306281887087        0.27287610353402
H            3.99321124799900       -1.39766747169419        1.49151041549780
H            6.32887454000691       -0.85152020709211        1.78493555747658
H            7.87536183056307        0.21275790320783        2.74972075520759
H           10.21969239307605        0.70604480317508        3.08981778200360
H           11.45664698014736        2.21059832975500        1.54800746757943
H            5.74476762686414        2.85638257147470       -0.27165586765823
H            3.38663387387971        2.31274378572500       -0.57445608053516
H            3.56936042569213       -1.63987583302520       -1.50714348278286
H            4.67627002949950       -3.78026650377179       -1.83176227121253
H            3.02596146468585       -6.67053164450437       -2.35703365358945
H            4.57166389570221       -7.51945330100228       -2.27167828803563
H            4.52222958869637       -5.82710177538451       -2.75491601077365
H            3.77492444509315       -7.08267176381895        1.30166088187171
H            4.22298646529298       -8.21629306218007        0.03402948479622
H            2.62025511742564       -7.49186142214878        0.01844084112737
H            5.81638968790540       -5.67942100433093        0.76773007008579
H            6.24394882225564       -6.91344584618550       -0.42025121536528
H            6.16920371450716       -5.21917235874611       -0.89669983248416
H            2.11250287293762       -5.55121248444745        1.09906969607397
H            1.02624523406037       -3.40315690205864        1.43592290024963
H           -3.31481094894680        1.12915713032186       -1.72987776084916
H           -4.42563687587033        3.27783636324730       -1.97709290931542
