  38
        -61.68690504
 C          3.1443968109        2.6723214027       -0.4667993836
 C          1.7805564174        2.8724543046       -0.3437619396
 C          0.9499831291        1.7832036780       -0.0629804748
 C         -0.5011011931        1.9114890880        0.0733501397
 C         -1.1375824092        3.1344319568        0.2846155653
 C         -2.5172188464        3.2394080066        0.4022776040
 C         -3.3360314922        2.1278131643        0.3154519949
 C         -2.7444213352        0.8898351617        0.1155506528
 C         -1.3354669493        0.7879356843        0.0016588675
 N         -0.9990703999       -0.5179188295       -0.1906223407
 C         -2.1322286748       -1.2872202662       -0.2000512168
 C         -2.2723133862       -2.6585716484       -0.3512615342
 C         -3.5507752682       -3.1811365120       -0.3137437603
 C         -4.6645725820       -2.3632416316       -0.1315164724
 C         -4.5309935954       -0.9972948230        0.0202260957
 C         -3.2560948952       -0.4471788415       -0.0117402208
 N          1.4585291703        0.5535948804        0.0738062781
 C          2.7644566832        0.3757481672       -0.0386743102
 N          3.2229838421       -0.9290819290        0.1223111671
 C          2.5217903730       -2.0016162162        0.5733423599
 C          3.3773049396       -3.0705849236        0.5545175375
 C          4.5898814399       -2.5451496695        0.0697874902
 N          4.4819570349       -1.2610508899       -0.1804741302
 C          3.6665750407        1.4013521337       -0.3088828246
 H          3.7978848291        3.5037817776       -0.6867831268
 H          1.3656756066        3.8566478658       -0.4835323141
 H         -0.5476792020        4.0327224439        0.3812656928
 H         -2.9543315844        4.2128835846        0.5680285709
 H         -4.4076755987        2.2195645627        0.4057296683
 H         -0.0389976700       -0.8107110737       -0.2900511051
 H         -1.4107831717       -3.2942264215       -0.4935611918
 H         -3.6918883599       -4.2459175118       -0.4276521110
 H         -5.6470777771       -2.8109273981       -0.1078465298
 H         -5.3968262015       -0.3681151258        0.1623212111
 H          1.5039950073       -1.9102022569        0.8913455638
 H          3.1730233046       -4.0806576298        0.8437387597
 H          5.5181798300       -3.0535220009       -0.0996080851
 H          4.7169628670        1.1815952397       -0.3930040036
