  38
  -61.6869050400000       0.555770619298266      !
 C          3.1443968109        2.6723214027       -0.4667993836
 C          1.7805564174        2.8724543046       -0.3437619396
 C          0.9499831291        1.7832036780       -0.0629804748
 C         -0.5011011931        1.9114890880        0.0733501397
 C         -1.1375824092        3.1344319568        0.2846155653
 C         -2.5172188464        3.2394080066        0.4022776040
 C         -3.3360314922        2.1278131643        0.3154519949
 C         -2.7444213352        0.8898351617        0.1155506528
 C         -1.3354669493        0.7879356843        0.0016588675
 N         -0.9990703999       -0.5179188295       -0.1906223407
 C         -2.1322286748       -1.2872202662       -0.2000512168
 C         -2.2723133862       -2.6585716484       -0.3512615342
 C         -3.5507752682       -3.1811365120       -0.3137437603
 C         -4.6645725820       -2.3632416316       -0.1315164724
 C         -4.5309935954       -0.9972948230        0.0202260957
 C         -3.2560948952       -0.4471788415       -0.0117402208
 N          1.4585291703        0.5535948804        0.0738062781
 C          2.7644566832        0.3757481672       -0.0386743102
 N          3.2229838421       -0.9290819290        0.1223111671
 C          2.5217903730       -2.0016162162        0.5733423599
 C          3.3773049396       -3.0705849236        0.5545175375
 C          4.5898814399       -2.5451496695        0.0697874902
 N          4.4819570349       -1.2610508899       -0.1804741302
 C          3.6665750407        1.4013521337       -0.3088828246
 H          3.7978848291        3.5037817776       -0.6867831268
 H          1.3656756066        3.8566478658       -0.4835323141
 H         -0.5476792020        4.0327224439        0.3812656928
 H         -2.9543315844        4.2128835846        0.5680285709
 H         -4.4076755987        2.2195645627        0.4057296683
 H         -0.0389976700       -0.8107110737       -0.2900511051
 H         -1.4107831717       -3.2942264215       -0.4935611918
 H         -3.6918883599       -4.2459175118       -0.4276521110
 H         -5.6470777771       -2.8109273981       -0.1078465298
 H         -5.3968262015       -0.3681151258        0.1623212111
 H          1.5039950073       -1.9102022569        0.8913455638
 H          3.1730233046       -4.0806576298        0.8437387597
 H          5.5181798300       -3.0535220009       -0.0996080851
 H          4.7169628670        1.1815952397       -0.3930040036
  38
  -61.6861344600000       0.245901702551915      !
 C          3.2242951967        2.7642250323        0.0393089420
 C          1.8605524271        2.9912503921        0.0258986471
 C          0.9914432455        1.8921166580        0.0120152032
 C         -0.4647814179        1.9769299521        0.0009090762
 C         -1.1600075153        3.1866485019        0.0059974970
 C         -2.5462089190        3.2438170459        0.0007837632
 C         -3.3122437683        2.0912108314       -0.0099285620
 C         -2.6634028336        0.8668597742       -0.0170098250
 C         -1.2436119283        0.8058031753       -0.0118119726
 N         -0.8554578420       -0.4978872144       -0.0203706373
 C         -1.9625836604       -1.3014989214       -0.0304863527
 C         -2.0471898427       -2.6862596101       -0.0413918224
 C         -3.3068345948       -3.2526305993       -0.0498479887
 C         -4.4579624137       -2.4652659811       -0.0477729014
 C         -4.3807289870       -1.0869124517       -0.0373629500
 C         -3.1247223203       -0.4933552196       -0.0285256948
 N          1.4853579781        0.6564409054        0.0117518301
 C          2.7843163424        0.4407877736        0.0257599543
 N          3.1236960649       -0.9135332925        0.0253090064
 C          4.3505275286       -1.4937848137        0.0503112293
 C          4.1517674719       -2.8492912651        0.0413341016
 C          2.7534300857       -3.0007692361        0.0087524069
 N          2.1526584167       -1.8346065363       -0.0000975309
 C          3.7221426075        1.4691138448        0.0399194781
 H          3.9106534115        3.5987188596        0.0499629327
 H          1.4849455398        4.0006424210        0.0268071482
 H         -0.6116856956        4.1159454682        0.0150083637
 H         -3.0313222327        4.2087984216        0.0054331509
 H         -4.3905931301        2.1429379127       -0.0130901554
 H          0.1167446061       -0.7898972425       -0.0167117408
 H         -1.1538339543       -3.2918504968       -0.0432813160
 H         -3.4059394632       -4.3284469844       -0.0594558345
 H         -5.4244429434       -2.9476912862       -0.0555867411
 H         -5.2752564669       -0.4818048279       -0.0361276030
 H          5.2562459790       -0.9240485449        0.0738467838
 H          4.8935431566       -3.6207809571        0.0559085789
 H          2.1812373004       -3.9070342521       -0.0071393558
 H          4.7828289747        1.2823483585        0.0496796171
  38
  -61.6853884500000       0.111665516070732      !
 C          3.1666707137        2.7263960064        0.5381538747
 C          1.8114245770        2.9452760876        0.3750062129
 C          0.9807582717        1.8565755050        0.0815766932
 C         -0.4655297849        1.9508382632       -0.0850629213
 C         -1.1339381815        3.1614974999       -0.2646273068
 C         -2.5143452971        3.2306281236       -0.3906391484
 C         -3.2988561208        2.0924713725       -0.3249196376
 C         -2.6734770830        0.8672212150       -0.1545566926
 C         -1.2585787213        0.7920316255       -0.0601306697
 N         -0.8888979979       -0.5096739175        0.0844306439
 C         -2.0074511905       -1.2988670552        0.0991033552
 C         -2.1172716387       -2.6746496066        0.2411963868
 C         -3.3857183449       -3.2215598606        0.2421219141
 C         -4.5215684403       -2.4249727707        0.1008633504
 C         -4.4195018030       -1.0559825517       -0.0452467518
 C         -3.1546640910       -0.4816152094       -0.0449503039
 N          1.4930227466        0.6334039741       -0.0338912194
 C          2.7862393444        0.4284587870        0.1162127914
 N          3.1693421633       -0.9053800024       -0.0333170699
 C          4.4165812136       -1.4238576162       -0.1708880271
 C          4.2711593183       -2.7767573308       -0.3288112499
 C          2.8818069436       -2.9914591075       -0.2695460939
 N          2.2363576471       -1.8626206318       -0.0947112165
 C          3.6884987312        1.4480520691        0.4077122646
 H          3.8237101421        3.5503232548        0.7768391603
 H          1.4062630569        3.9363930330        0.4929140976
 H         -0.5666233848        4.0777036799       -0.3251195294
 H         -2.9799540980        4.1940282936       -0.5374730264
 H         -4.3732872959        2.1555271272       -0.4094932690
 H          0.0787604106       -0.8109354665        0.1038901148
 H         -1.2367946109       -3.2891947711        0.3512204971
 H         -3.5042677731       -4.2893919764        0.3559964960
 H         -5.4957951120       -2.8915131197        0.1081789162
 H         -5.3017779123       -0.4425567411       -0.1531196680
 H          5.2963441549       -0.8141935835       -0.1640490906
 H          5.0416572681       -3.5066634856       -0.4677401653
 H          2.3470698868       -3.9172972403       -0.3460101693
 H          4.7403476623        1.2610111584        0.5452105841
  38
  -61.6851489000000       8.666216207908764E-002 !
 C          3.1614952252        2.7192728905        0.5904293216
 C          1.8078719346        2.9416967301        0.4165462520
 C          0.9805330626        1.8574508481        0.0992381486
 C         -0.4636672368        1.9514882745       -0.0856451677
 C         -1.1285378898        3.1590254761       -0.2941166288
 C         -2.5066770079        3.2242891953       -0.4466116044
 C         -3.2913678500        2.0863965643       -0.3778925216
 C         -2.6690037049        0.8642525816       -0.1758296481
 C         -1.2560145292        0.7925167086       -0.0564814811
 N         -0.8871934939       -0.5058105741        0.1183902676
 C         -2.0048421075       -1.2961410202        0.1272180657
 C         -2.1147285585       -2.6688450122        0.2958364091
 C         -3.3820356184       -3.2181208596        0.2858179596
 C         -4.5162678617       -2.4267021319        0.1074274204
 C         -4.4140089281       -1.0605904887       -0.0635082229
 C         -3.1504713776       -0.4833961384       -0.0511822093
 N          1.4933832886        0.6360914212       -0.0275786205
 C          2.7849965820        0.4281800553        0.1303543380
 N          3.1660422222       -0.9040208308       -0.0387115639
 C          4.4097406238       -1.4210637158       -0.2086579916
 C          4.2591431637       -2.7705523485       -0.3906575111
 C          2.8706605290       -2.9846352890       -0.3109616721
 N          2.2303755757       -1.8585200858       -0.1025867950
 C          3.6847177383        1.4428787195        0.4452318035
 H          3.8163932231        3.5390310389        0.8487352144
 H          1.4006074344        3.9308344536        0.5446976273
 H         -0.5594305291        4.0740808671       -0.3578232200
 H         -2.9706330857        4.1847444286       -0.6163807889
 H         -4.3640795676        2.1472828693       -0.4836159666
 H          0.0800289865       -0.8077177894        0.1435793889
 H         -1.2351342084       -3.2790216487        0.4339937154
 H         -3.5007962306       -4.2837053397        0.4190557358
 H         -5.4895321921       -2.8952714949        0.1045476342
 H         -5.2953553940       -0.4515358837       -0.1998926598
 H          5.2897881757       -0.8115730532       -0.2067288375
 H          5.0256076791       -3.4988169370       -0.5578842211
 H          2.3326193887       -3.9077914710       -0.3966783998
 H          4.7350649415        1.2526568482        0.5903818613
