71
 energy: -107.388360650969 gnorm: 0.000099375385 xtb: 6.7.1 (edcfbbe)
C           -6.42249779775074        0.55599180692439       -1.13204666168473
C           -5.73511712492590        0.01584364174075        0.13768252108579
C           -6.79155919735840       -0.46017209974739        1.15411552092939
C           -4.92552822200521        1.13677941475803        0.75307691040440
C           -5.57311552747786        2.28619079526577        1.18730127248585
C           -4.88415372514141        3.36536514208022        1.70868608591917
C           -3.50063652188382        3.31918252439316        1.77605731661183
C           -2.83169891240897        2.19433487181527        1.34833539612057
C           -3.52714538092258        1.07865406612514        0.85998407522971
N           -2.82912968696325       -0.04791249363447        0.46368093162877
C           -1.41599982439301       -0.03156042960858        0.45548291925824
C           -0.68875256876143       -0.00119459259460        1.65757340126422
C            0.68719753852735        0.00322517586350        1.65810255484593
C            1.41543971386620        0.03430325825142        0.45661732607221
N            2.82858136631194        0.04851950656696        0.46615552684198
C            3.52422770920661       -1.07973154811894        0.86197830582103
C            2.82626078462119       -2.19503839155570        1.34762270607872
C            3.49267775980556       -3.32176027057305        1.77435553676905
C            4.87619146264089       -3.37029259615974        1.70855296770690
C            5.56769775401096       -2.29136087315779        1.19004539792498
C            4.92265571670041       -1.14007464431111        0.75695072354613
C            5.73510270684235       -0.01932375338779        0.14504732753843
C            6.42621236593703       -0.55884538755318       -1.12291956810652
C            6.78830367804256        0.45497252186569        1.16566380578671
C            4.86811171251678        1.15899613021170       -0.24043078939236
C            5.45492089129491        2.29448300748323       -0.78362107307051
C            4.71517343444738        3.41396269644099       -1.11534062271205
C            3.34987080356687        3.42437115120554       -0.87364164343300
C            2.74258563891060        2.31141479443716       -0.33913200713314
C            3.47863973565130        1.15336082022793       -0.05172592629006
C            0.72159838204404        0.03890658890120       -0.76457114528601
N            1.24712574274369        0.07200636355331       -1.98511590154738
S            0.00107292577293        0.00359220577565       -3.08174648320699
N           -1.24579683186315       -0.06624428725820       -1.98613851791993
C           -0.72118582622644       -0.03448112787642       -0.76515931147136
C           -3.47676937933204       -1.15371824718213       -0.05521636127906
C           -2.73856817430571       -2.31072595169426       -0.34137163375811
C           -3.34331234988697       -3.42453494393538       -0.87696221097172
C           -4.70817397740737       -3.41597185697902       -1.12121832242212
C           -5.45009474161250       -2.29754650557293       -0.79080299480699
C           -4.86590733298555       -1.16135594465984       -0.24623702828082
H           -7.03258604548501       -0.21430451623216       -1.59463572580363
H           -5.67021437408756        0.87712888265323       -1.85054290160600
H           -7.05879668590302        1.40385706481558       -0.89573221770917
H           -6.30147008417480       -0.83291407776041        2.05160140530714
H           -7.39714776095587       -1.25845649966866        0.73642604770614
H           -7.45138113079858        0.35491606796293        1.43485014050294
H           -6.64733673052588        2.34909192430709        1.11212205519090
H           -5.41936030945734        4.24168681650529        2.04060583828580
H           -2.94105795726869        4.16220113442262        2.15260334988859
H           -1.75393459614117        2.17457892754001        1.37931212992381
H           -1.23192616784722       -0.01419876241167        2.59102586242965
H            1.22964658518085        0.01507466473358        2.59199167051878
H            1.74850336518196       -2.17360279631049        1.37709429614063
H            2.93110160662252       -4.16449032957056        2.14857416721600
H            5.40944664913089       -4.24810090991584        2.03968209285154
H            6.64194150449138       -2.35577711391996        1.11658207557723
H            5.67616749492602       -0.87962816003412       -1.84391414346114
H            7.03771578941136        0.21165667358156       -1.58322837546082
H            7.06191954645599       -1.40674147245691       -0.88518768184994
H            7.44591181342738       -0.36114842982385        1.44865588617858
H            7.39648261563614        1.25252446287666        0.75035130368969
H            6.29539429473150        0.82820908699454        2.06142761185890
H            6.51977664425723        2.31047677336172       -0.95590666224127
H            5.20054292643533        4.27738383472794       -1.54401284864931
H            2.76028928199961        4.30113921979551       -1.09642055275304
H            1.68303727480430        2.32775714454714       -0.13619239578194
H           -1.67930176170453       -2.32540447411698       -0.13688266280703
H           -2.75207668921916       -4.30038383669287       -1.09888442018201
H           -5.19154095449271       -4.28006454088874       -1.55078874056571
H           -6.51458650859520       -2.31504371324964       -0.96515606523507
