71
 energy: -107.442169587250 gnorm: 0.000045565673 xtb: 6.7.1 (edcfbbe)
C           -6.50480393810798        0.06301871743740       -1.40521939516989
C           -5.75641695534020        0.00757112852248       -0.06027326780358
C           -6.75850970872179       -0.05819941756427        1.10786737185125
C           -4.92303507823721        1.26755748551894        0.07824857177079
C           -5.55554430081421        2.50406794453491        0.06803676590790
C           -4.85348718891731        3.69216500659611        0.15096567000658
C           -3.47323217531473        3.65482749490928        0.23024238059085
C           -2.82023566239468        2.43990196400545        0.24590484281379
C           -3.52870930282784        1.23637515474291        0.18909236911413
N           -2.84606622416259        0.02574360351748        0.22529749639733
C           -1.43407204503490        0.02019097496487        0.22500692238888
C           -0.70219621051086        0.35148492650439        1.34107170094587
C            0.70241317208116        0.35166303795306        1.34086650136218
C            1.43406090538077        0.02046791096907        0.22462348755787
N            2.84605923221766        0.02601016130010        0.22466620988300
C            3.50996859196642       -1.18982876106766        0.11776831611954
C            2.78454145627434       -2.38062393023171        0.21254794077946
C            3.40898691577415       -3.60603839765116        0.11024513349065
C            4.77857533010908       -3.66491466301690       -0.07435360621323
C            5.50348695439895       -2.48890247086931       -0.13025467300916
C            4.89892535739039       -1.24270761012592       -0.03003557599908
C            5.75648093986142        0.00763319999409       -0.06007861342361
C            6.50542998290246        0.06264512265314       -1.40473230986580
C            6.75808904534048       -0.05785365164593        1.10849209401661
C            4.92310571498234        1.26770332357707        0.07772619164538
C            5.55564579504877        2.50419325529695        0.06724799604796
C            4.85358709638920        3.69233477022095        0.14954936165478
C            3.47330943884867        3.65505641194202        0.22848233480960
C            2.82028087159618        2.44015135365668        0.24441520448616
C            3.52874924460475        1.23659372408334        0.18820632495908
C            0.71954950784211       -0.31920457699181       -0.94791929330270
N            1.21718433969380       -0.63518907953895       -2.14355023310650
S           -0.00035646654378       -0.90460469609546       -3.15753266348902
N           -1.21769015130313       -0.63541551273882       -2.14323406131176
C           -0.71980326238912       -0.31935832326978       -0.94771749044588
C           -3.51003675365516       -1.19003590875858        0.11808244157396
C           -2.78470241339188       -2.38086991546403        0.21305419389703
C           -3.40918230491183       -3.60624303511453        0.11045649384797
C           -4.77869770206931       -3.66502643363059       -0.07472263513026
C           -5.50352739148542       -2.48897338941463       -0.13080080478082
C           -4.89894116611161       -1.24282050648705       -0.03019931518287
H           -7.14863183674355        0.93658424379464       -1.45542934187634
H           -7.11949465932775       -0.82211417217144       -1.54211929601065
H           -5.78871529154570        0.11513235402611       -2.22366965398662
H           -6.22167982370873       -0.10552485145041        2.05393627933799
H           -7.38991051863865       -0.93834819077819        1.02753680487334
H           -7.39835384097410        0.81949597922794        1.11956813690958
H           -6.63094902505740        2.54708373010854       -0.01162046862614
H           -5.37825574165174        4.63545601225089        0.14298018050346
H           -2.89985778713307        4.56904997537657        0.27700183597581
H           -1.74224550028795        2.42383921531500        0.29532014822564
H           -1.22491953416127        0.61637135028875        2.24812340217900
H            1.22533248648076        0.61667388185163        2.24776272248878
H            1.71771757825813       -2.34413787274608        0.37611883317199
H            2.82420513225554       -4.51158121969870        0.18044065365671
H            5.28015239979896       -4.61697444069347       -0.16028983391888
H            6.57376461775433       -2.54972936787713       -0.25519667311702
H            5.78967291800998        0.11449523003252       -2.22348850543333
H            7.14928557968945        0.93618800678851       -1.45496376246372
H            7.12017166665690       -0.82253474894928       -1.54109531758309
H            6.22088146120485       -0.10496820170641        2.05435737472574
H            7.38953724344270       -0.93801140914808        1.02862239005554
H            7.39790986499800        0.81985865358016        1.12024671055921
H            6.63107482231609        2.54716234782097       -0.01210516989969
H            5.37837819508794        4.63561130904530        0.14135469663557
H            2.89995369884331        4.56931474226849        0.27475223667075
H            1.74227519502336        2.42409939819245        0.29356036382308
H           -1.71793963587719       -2.34442260187788        0.37704535058611
H           -2.82449634480707       -4.51182973116500        0.18086744250299
H           -5.28029167706567       -4.61705187754740       -0.16094755671186
H           -6.57375413329714       -2.54973413739091       -0.25621036295268
