71
 energy: -107.387869543067 gnorm: 0.000053600480 xtb: 6.7.1 (edcfbbe)
C           -6.40829110438941       -0.01283878288409       -1.31340225619808
C           -5.73652787645659        0.08958065360800        0.07027811942643
C           -6.80478427021224        0.13529084708197        1.18035881679412
C           -4.92406728315470        1.36600019078751        0.11021620401752
C           -5.56916228844596        2.58856283466603       -0.02348153304094
C           -4.87757052375714        3.78536604949332       -0.05211260419585
C           -3.49363768650256        3.77143801825083        0.01925940888393
C           -2.82670289555478        2.57324405014460        0.14370094189429
C           -3.52478330467584        1.35947226660270        0.22429845679578
N           -2.82960437517577        0.17385527369137        0.37854912221747
C           -1.41810116889421        0.17853996942635        0.36474927075976
C           -0.68597643919085        0.77521149295738        1.40946762466497
C            0.68792244854025        0.77508865331242        1.41022387795272
C            1.42099459670363        0.17814577731285        0.36636872758022
N            2.83251948162123        0.17286568333245        0.38138191969921
C            3.48513928498875       -1.04461539114227        0.44969174444864
C            2.75233697290806       -2.20178681267344        0.74765315215544
C            3.36026345337309       -3.43513692562814        0.79680425129601
C            4.72372512158543       -3.53920737139200        0.56763232103325
C            5.46154669483377       -2.39448804195250        0.33155711190577
C            4.87418943559921       -1.13690491702996        0.28336433225180
C            5.73902901969667        0.08580975782033        0.07059736863122
C            6.40840905510870       -0.01969979723479       -1.31401676391083
C            6.80912402705884        0.13272067867703        1.17884585281885
C            4.92763662416983        1.36295726856888        0.10947754577081
C            5.57351638654119        2.58479665902786       -0.02700999437721
C            4.88281722139077        3.78208674905332       -0.05675630113134
C            3.49896831618268        3.76939962769325        0.01654159529226
C            2.83124900347181        2.57194602855526        0.14379840780236
C            3.52847283364899        1.35774071517010        0.22505875283682
C            0.72279560297964       -0.43069069262209       -0.68942462771855
N            1.25138736100752       -0.99560368566442       -1.77250901251510
S            0.00305487425535       -1.50763771969297       -2.74131903349850
N           -1.24630664777565       -0.99498702204183       -1.77414901887433
C           -0.71888158960674       -0.43036533292813       -0.69034367743713
C           -3.48309645240717       -1.04328778973303        0.44513870817289
C           -2.75109484771117       -2.20161061646739        0.74058643761984
C           -3.35996743094739       -3.43457222626201        0.78771641831643
C           -4.72363112367758       -3.53715987210920        0.55909702908987
C           -5.46068005126071       -2.39139262888949        0.32574229585177
C           -4.87233847142126       -1.13418979219682        0.27956197579549
H           -7.03417004506109        0.85417441943393       -1.50398847248650
H           -7.02567593152259       -0.90437210392263       -1.37384079558981
H           -5.64697565039302       -0.06796085270203       -2.08977309742899
H           -6.32421160597811        0.21258815735242        2.15387888200976
H           -7.41367742795730       -0.76325859232668        1.16795194094528
H           -7.46085355447376        0.99033431716973        1.05023830961568
H           -6.64361093427771        2.61292245854225       -0.11593852643547
H           -5.41127090029425        4.71807966952846       -0.15100196750841
H           -2.93232717018674        4.69215727764857       -0.03393285845658
H           -1.74879819908204        2.56647686544799        0.16721211349566
H           -1.22901605802069        1.20084997500057        2.24016033787050
H            1.23012794695493        1.20062629163233        2.24151280842642
H            1.69462295400691       -2.12015152756478        0.94419686778770
H            2.77280292324308       -4.31350122328168        1.01890738830745
H            5.20958873459454       -4.50265650710807        0.59043411889561
H            6.52537195951438       -2.48921036670694        0.17954412251163
H            5.64573235554024       -0.07587302715699       -2.08898132963322
H            7.03447276165180        0.84657440017593       -1.50736054690795
H            7.02515090724374       -0.91173091956032       -1.37374247066035
H            7.41729226429120       -0.76632474175075        1.16712646669101
H            7.46569201058080        0.98697025042116        1.04606410324903
H            6.33019937976833        0.21221483390655        2.15300315549526
H            6.64786467997651        2.60818076374329       -0.12088020054774
H            5.41711146431846        4.71421106985768       -0.15796697528073
H            2.93834015428628        4.69049775029869       -0.03728385795885
H            1.75337435410604        2.56604758549126        0.16894958339537
H           -1.69322669331360       -2.12128523576115        0.93675698887354
H           -2.77305555578344       -4.31380620469974        1.00781397994284
H           -5.21022871960386       -4.50027509940816        0.58029576802024
H           -6.52469679001298       -2.48493596185866        0.17434755165022
