  71
       -107.40288485
 C         -6.3595388576       -0.0537065912       -1.3692888503
 C         -5.7262615767        0.0790651523        0.0272019520
 C         -6.8220931859        0.1447579544        1.1063086686
 C         -4.9190454899        1.3617497752        0.0670822655
 C         -5.5656783611        2.5744898608       -0.1288820180
 C         -4.8848687924        3.7772856160       -0.1469305007
 C         -3.5116524591        3.7757454187        0.0157577487
 C         -2.8446100844        2.5850095032        0.2123914914
 C         -3.5332676426        1.3694911146        0.2592543715
 N         -2.8419687312        0.1850810326        0.4750867255
 C         -1.4322400445        0.1870426712        0.4811461346
 C         -0.6969884272        0.7064401241        1.5207985287
 C          0.7066498328        0.7042388535        1.5154211002
 C          1.4333205087        0.1836250362        0.4700875702
 N          2.8425118342        0.1792618280        0.4557849390
 C          3.4893675721       -1.0490402261        0.4761282258
 C          2.7594325006       -2.2056244896        0.7640847316
 C          3.3661249732       -3.4432288260        0.7830825735
 C          4.7221085190       -3.5481239769        0.5315272102
 C          5.4544406711       -2.4010562650        0.2903675741
 C          4.8673044350       -1.1433038600        0.2669154581
 C          5.7304945492        0.0791087887        0.0306528014
 C          6.3701344423       -0.0328632057       -1.3647901282
 C          6.8208631408        0.1279709194        1.1158919165
 C          4.9234917218        1.3613541430        0.0844697228
 C          5.5724285853        2.5766831821       -0.0864195513
 C          4.8921686799        3.7797906735       -0.0943079405
 C          3.5170088540        3.7758852265        0.0504224185
 C          2.8477741257        2.5826236096        0.2221127560
 C          3.5358635435        1.3664038329        0.2623211010
 C          0.7143156323       -0.3556092181       -0.6212382410
 N          1.2066881239       -0.8833185126       -1.7431069264
 S         -0.0141981632       -1.3285913360       -2.6842077025
 N         -1.2255194760       -0.8817323975       -1.7325376090
 C         -0.7227592906       -0.3543922704       -0.6150261873
 C         -3.4887153432       -1.0427614710        0.5047647828
 C         -2.7598302200       -2.1950962259        0.8118578465
 C         -3.3660078102       -3.4327136671        0.8422543176
 C         -4.7202454616       -3.5413476799        0.5823454628
 C         -5.4516020889       -2.3979178476        0.3210457186
 C         -4.8649704738       -1.1402668281        0.2859581972
 H         -6.9981672637        0.7974230324       -1.5882146689
 H         -6.9576024327       -0.9580121288       -1.4369090081
 H         -5.5768690939       -0.1011756254       -2.1236290460
 H         -6.3661755327        0.2365775455        2.0902320949
 H         -7.4331382584       -0.7528887450        1.0940531868
 H         -7.4726794071        0.9998298861        0.9483779834
 H         -6.6341945621        2.5864750952       -0.2790930310
 H         -5.4197230877        4.7023093876       -0.2979395919
 H         -2.9549560243        4.7005996189       -0.0135101920
 H         -1.7718367532        2.5976341907        0.3209975418
 H         -1.2169408303        1.1217449092        2.3709160842
 H          1.2343034324        1.1177821442        2.3616563683
 H          1.7054820797       -2.1319303886        0.9837338229
 H          2.7795649208       -4.3233819785        1.0002437656
 H          5.2084842050       -4.5115757619        0.5360915592
 H          6.5150986897       -2.4946406753        0.1146440971
 H          5.5911283045       -0.0656004936       -2.1234060917
 H          7.0121720861        0.8197113559       -1.5664301941
 H          6.9656643598       -0.9379362809       -1.4444031335
 H          7.4302922750       -0.7705397726        1.0948303812
 H          7.4740269016        0.9833688945        0.9721382729
 H          6.3607513276        0.2080454696        2.0986903910
 H          6.6423202559        2.5903158743       -0.2252921205
 H          5.4288773652        4.7068299361       -0.2250112798
 H          2.9604392882        4.7009655606        0.0261716528
 H          1.7737937766        2.5939567132        0.3166085859
 H         -1.7073351975       -2.1171800650        1.0374348776
 H         -2.7806716105       -4.3098975249        1.0746394831
 H         -5.2061285062       -4.5049507789        0.5957681843
 H         -6.5107273558       -2.4948024910        0.1377429040
