  53
        -83.83508338
 C         -5.7134745796       -0.0098240534        0.6110136054
 C         -4.5427486342        0.0418614207       -0.3895708683
 C         -5.0770259903        0.1353233716       -1.8320683317
 C         -3.7343567112       -1.2308850018       -0.2575176470
 C         -4.3405351753       -2.4604621873       -0.4754030312
 C         -3.6417372239       -3.6491808236       -0.3711631476
 C         -2.2943247221       -3.6254074824       -0.0433410495
 C         -1.6655182837       -2.4217665356        0.1783555432
 C         -2.3720645352       -1.2143559868        0.0791431044
 N         -1.7170769952       -0.0267692634        0.3197276319
 C         -0.3249745486       -0.0591825627        0.6086603797
 C          0.1260211296       -0.2312496153        1.9291801880
 C          1.4714230622       -0.2683510901        2.1783291229
 C          2.4094796735       -0.1361177373        1.1409498040
 C          1.9511527409        0.0369549297       -0.1796798546
 C          0.5733471985        0.0731175887       -0.4244543743
 C          2.8561628364        0.1794463678       -1.3118074861
 O          2.4486231223        0.3374773704       -2.4718490884
 C          4.2698646427        0.1190488723       -0.9692989061
 C          5.2066011806        0.2412132441       -2.0072901580
 C          6.5534581756        0.1881153742       -1.7477029946
 C          7.0078858838        0.0118764075       -0.4389456821
 C          6.1077897055       -0.1080459889        0.5908256745
 C          4.7273405604       -0.0567950843        0.3472298057
 C          3.8202933111       -0.1895613413        1.4795929135
 O          4.2162146873       -0.3399584579        2.6456370002
 C         -2.3528253556        1.1921984500        0.2359224482
 C         -1.6308403814        2.3640152586        0.5049701871
 C         -2.2380138717        3.5967200739        0.4333411770
 C         -3.5794488275        3.6856084521        0.0917670070
 C         -4.2962731695        2.5319541048       -0.1681201674
 C         -3.7124895931        1.2742660845       -0.1018055676
 H         -5.3308194408       -0.0869941508        1.6271080683
 H         -6.3503400234       -0.8682902321        0.4179109272
 H         -6.3225883403        0.8866162198        0.5412728443
 H         -5.6868158854       -0.7300655079       -2.0756554712
 H         -5.6832426643        1.0271062420       -1.9623987438
 H         -4.2460103420        0.1788264587       -2.5335731650
 H         -5.3868691784       -2.4981220800       -0.7371638643
 H         -4.1437159220       -4.5873369131       -0.5490587621
 H         -1.7346026522       -4.5442187784        0.0371305384
 H         -0.6169334347       -2.4006035633        0.4275786272
 H         -0.5939133376       -0.3314027376        2.7269586712
 H          1.8599002356       -0.3993350693        3.1774063699
 H          0.2349558410        0.2060686795       -1.4408908115
 H          4.8265983967        0.3766071852       -3.0090239996
 H          7.2618784137        0.2828749076       -2.5572122004
 H          8.0676825258       -0.0292334684       -0.2362110385
 H          6.4292242876       -0.2438637067        1.6128370643
 H         -0.5877669575        2.2919157259        0.7675894592
 H         -1.6668166432        4.4876991853        0.6431311763
 H         -4.0646400098        4.6471754783        0.0310116634
 H         -5.3395428139        2.6204241172       -0.4296461333
