  94
       -157.71413807
 C          9.5627337285        1.8902079019       -1.3172027962
 C          9.7319598158        2.9284744270       -0.4127168473
 N          8.8346890039        3.2361136086        0.5084722427
 C          7.7294229725        2.5199953863        0.5696906562
 C          7.4503777577        1.4485660874       -0.2800093497
 C          6.1902543728        0.7011661276       -0.1607599736
 C          5.0024964870        1.3873031384       -0.1268422555
 C          3.7741802277        0.7016854766       -0.0708619189
 N          2.6241730724        1.3898098477       -0.0465996172
 C          1.4967080193        0.7045517436       -0.0056958596
 C          0.2438741169        1.4219780864        0.0193003065
 C          0.2480727035        2.8194562393       -0.0401513598
 C         -0.9250568400        3.5320347384       -0.0304662942
 C         -2.1424558155        2.8500882435        0.0607646542
 N         -3.3550609753        3.5645445112        0.0706855165
 C         -4.3278850573        3.3420644068       -0.9094120098
 C         -4.1519597305        2.4353844386       -1.9477123081
 C         -5.1419475410        2.2396917605       -2.8987797815
 C         -6.3189249670        2.9569249166       -2.8394561436
 C         -6.4953982406        3.8940836058       -1.8324225775
 C         -5.5114943156        4.0931685656       -0.8817072765
 O         -5.7487644756        5.0637086527        0.0586465481
 C         -4.7978411820        5.2499639392        1.0303490018
 C         -5.0704178860        6.1964846357        2.0005041453
 C         -4.1753193645        6.4147104938        3.0372429831
 C         -3.0201822402        5.6627652644        3.1067561043
 C         -2.7413194340        4.7141130101        2.1348201641
 C         -3.6078655093        4.5113248400        1.0678198096
 C         -2.1561804961        1.4666601746        0.1343272510
 C         -0.9764164501        0.7219050771        0.0969382387
 C         -0.9773231911       -0.7339212978        0.1113147614
 C         -2.1594475058       -1.4747463794        0.1509144946
 C         -2.1501050121       -2.8592342811        0.1026237201
 N         -3.3676219753       -3.5649694999        0.0983996249
 C         -4.3189845648       -3.3392976841       -0.9020678694
 C         -4.1062373237       -2.4546980495       -1.9527942213
 C         -5.0766527531       -2.2519937830       -2.9221426586
 C         -6.2714091059       -2.9401421160       -2.8695315303
 C         -6.4840438415       -3.8572981879       -1.8512486515
 C         -5.5189776968       -4.0638754021       -0.8827652427
 O         -5.7908851290       -5.0161039156        0.0668689348
 C         -4.8566354545       -5.2128850840        1.0522013549
 C         -5.1618081620       -6.1453864805        2.0264509202
 C         -4.2851317223       -6.3733227992        3.0765323381
 C         -3.1154875546       -5.6449026157        3.1553989643
 C         -2.8042490978       -4.7100875353        2.1799588282
 C         -3.6522369728       -4.4984351462        1.0997099878
 C         -0.9336223912       -3.5467016770        0.0421067774
 C          0.2415576916       -2.8376133682        0.0295613176
 C          0.2414677911       -1.4387922840        0.0562299637
 C          1.4962105181       -0.7250782809        0.0146909879
 N          2.6237013500       -1.4115945751       -0.0070479023
 C          3.7741092688       -0.7246518292       -0.0515150476
 C          5.0039033038       -1.4101450637       -0.0695910400
 C          6.1914812130       -0.7239278170       -0.1123652858
 C          7.4581266791       -1.4690613589       -0.0780546795
 C          8.4720655801       -1.1582052582        0.8264085097
 C          9.6382959960       -1.9021110327        0.8124278264
 C          9.7511138926       -2.9372122785       -0.1045096237
 N          8.7948961457       -3.2472260307       -0.9634362798
 C          7.6843222549       -2.5369104130       -0.9477370844
 C          8.4023698484        1.1401404493       -1.2501462661
 H         10.3167829316        1.6777283182       -2.0588397343
 H         10.6197163458        3.5463773038       -0.4243076516
 H          7.0298864163        2.7996385680        1.3474216935
 H          4.9830687168        2.4656311308       -0.1711845519
 H          1.2021275708        3.3173122459       -0.1092682662
 H         -0.9199490800        4.6092963477       -0.0995336857
 H         -3.2288447730        1.8835604860       -2.0257530294
 H         -4.9777555014        1.5224931445       -3.6879937747
 H         -7.0945944960        2.8059702777       -3.5731860529
 H         -7.3922219717        4.4893537635       -1.7704891511
 H         -5.9931861061        6.7495909735        1.9292527693
 H         -4.3937915782        7.1583783400        3.7869290255
 H         -2.3245703390        5.8026342634        3.9197305799
 H         -1.8436588240        4.1214008397        2.2129621371
 H         -3.1138692044        0.9800088789        0.2242777307
 H         -3.1163859572       -0.9828433341        0.2172163630
 H         -3.1695393170       -1.9254197515       -2.0253991459
 H         -4.8829561931       -1.5528274908       -3.7208492494
 H         -7.0323567776       -2.7819770925       -3.6169592329
 H         -7.3947328212       -4.4315083707       -1.7929627579
 H         -6.0951823007       -6.6792548344        1.9471862591
 H         -4.5286584971       -7.1059953171        3.8294068420
 H         -2.4341721007       -5.7933484077        3.9789035300
 H         -1.8962450789       -4.1344523284        2.2656317587
 H         -0.9317577323       -4.6251343026       -0.0056881734
 H          1.1950373529       -3.3388995165       -0.0200150158
 H          4.9879242690       -2.4884980283       -0.0240322595
 H          8.3383393042       -0.3553878697        1.5376407934
 H         10.4399964973       -1.6863940325        1.5012788599
 H         10.6416780818       -3.5489578834       -0.1564926370
 H          6.9344814216       -2.8190047248       -1.6761896383
 H          8.2248086390        0.3347099580       -1.9487362146
