  94
  -157.158219006300       0.298305102821795      !
 C          8.9126497317        3.2529741704       -0.0378702473
 C          9.8052232404        2.6587355091        0.8414704751
 N          9.5486215359        1.5264037807        1.4747943651
 C          8.4011499311        0.9234818564        1.2405045620
 C          7.4351949372        1.4104276941        0.3573329855
 C          6.1679295110        0.6969103496        0.1466793921
 C          4.9811021645        1.3743200582        0.2688316253
 C          3.7496254576        0.7029485798        0.1428224217
 N          2.6000870469        1.3826477655        0.2553141269
 C          1.4708146036        0.7078113058        0.1406435035
 C          0.2171397743        1.4192671439        0.2277721938
 C          0.2251590184        2.8049128853        0.4186575914
 C         -0.9460998288        3.5182129728        0.4700722397
 C         -2.1646220100        2.8510634778        0.3110612671
 N         -3.3722244549        3.5754733378        0.3341201245
 C         -3.6070126949        4.5848532558       -0.6040627575
 C         -2.7272592140        4.8478478920       -1.6467455325
 C         -2.9904315892        5.8558570181       -2.5617462612
 C         -4.1424280498        6.6086704119       -2.4590928759
 C         -5.0489281777        6.3344841164       -1.4458960610
 C         -4.7918614496        5.3292910912       -0.5321600258
 O         -5.7520325610        5.0945083557        0.4195981623
 C         -5.5182111574        4.0853239435        1.3195372490
 C         -6.4968165117        3.8579964479        2.2693825543
 C         -6.3213305556        2.8796642278        3.2365722129
 C         -5.1523234454        2.1466623351        3.2558518693
 C         -4.1686056214        2.3692246081        2.3041080465
 C         -4.3424780341        3.3221710747        1.3080436582
 C         -2.1839676891        1.4779021700        0.1289692622
 C         -1.0054129732        0.7293345890        0.1026176421
 C         -1.0074331442       -0.7173794737       -0.0645877825
 C         -2.1885171717       -1.4617911456       -0.1045367738
 C         -2.1710901667       -2.8359211587       -0.2783595249
 N         -3.3805237500       -3.5567778426       -0.3203116342
 C         -3.6320753309       -4.5648875947        0.6145741740
 C         -2.7819843892       -4.8106668627        1.6857438077
 C         -3.0607238602       -5.8173137034        2.5975494658
 C         -4.1989802644       -6.5858954031        2.4624953162
 C         -5.0767524836       -6.3289953646        1.4198198026
 C         -4.8043382667       -5.3248906554        0.5093046866
 O         -5.7364532847       -5.1072081382       -0.4740103143
 C         -5.4864524511       -4.0997260994       -1.3716743342
 C         -6.4363919706       -3.8905026055       -2.3541577381
 C         -6.2425082179       -2.9148383115       -3.3205750643
 C         -5.0837326811       -2.1657866599       -3.3054999602
 C         -4.1286360234       -2.3702275996       -2.3210779540
 C         -4.3216796306       -3.3210889913       -1.3266355209
 C         -0.9526749537       -3.5090115868       -0.4115385071
 C          0.2200965112       -2.7992597164       -0.3510273655
 C          0.2138631563       -1.4119354744       -0.1725578276
 C          1.4688292835       -0.7030370050       -0.0851744919
 N          2.5958777723       -1.3803909156       -0.2047273375
 C          3.7472642355       -0.7027561597       -0.1008787839
 C          4.9756190758       -1.3766924145       -0.2404903201
 C          6.1650930413       -0.7014695548       -0.1331895955
 C          7.4270952739       -1.4190024063       -0.3612647854
 C          7.7015802415       -2.6294559693        0.2707511674
 C          8.8990436111       -3.2713382390        0.0088160202
 C          9.7817770036       -2.6810691112       -0.8831939581
 N          9.5227423688       -1.5459173898       -1.5104499019
 C          8.3828152470       -0.9360974729       -1.2576449095
 C          7.7073172793        2.6181286959       -0.2805916366
 H          9.1564051060        4.1850302043       -0.5234991958
 H         10.7657736943        3.1065151325        1.0568789429
 H          8.2298583864        0.0110898767        1.7971194437
 H          4.9643630021        2.4310925295        0.4888747088
 H          1.1809416997        3.2918742348        0.5288090453
 H         -0.9400216192        4.5858905615        0.6296742342
 H         -1.8312423633        4.2564849218       -1.7503359238
 H         -2.2852176447        6.0417066483       -3.3569108277
 H         -4.3491921899        7.3974356292       -3.1646715590
 H         -5.9687888660        6.8885143804       -1.3493553314
 H         -7.3877826317        4.4642593418        2.2380805429
 H         -7.0913394721        2.7076469419        3.9715391717
 H         -4.9902991149        1.3961349001        4.0141508373
 H         -3.2517508856        1.8028750251        2.3468148589
 H         -3.1420899119        1.0030045935       -0.0091463008
 H         -3.1469736155       -0.9826058980        0.0158693576
 H         -1.8973340421       -4.2067868334        1.8133328664
 H         -2.3787745055       -5.9898027339        3.4158634897
 H         -4.4173170020       -7.3740497188        3.1653708700
 H         -5.9853803061       -6.8963220064        1.2969759156
 H         -7.3195773977       -4.5089517184       -2.3488857970
 H         -6.9902799681       -2.7572933118       -4.0814052797
 H         -4.9071773063       -1.4166755713       -4.0619800200
 H         -3.2187657040       -1.7913025077       -2.3369583963
 H         -0.9483136531       -4.5783452721       -0.5598425165
 H          1.1756928541       -3.2900873940       -0.4444476658
 H          4.9537969303       -2.4332465205       -0.4610277638
 H          6.9903174306       -3.0453487791        0.9707148349
 H          9.1441964849       -4.2057924546        0.4890622151
 H         10.7359831673       -3.1347294513       -1.1144407844
 H          8.2088306069       -0.0219438699       -1.8105490736
 H          6.9880523134        3.0374935211       -0.9703981747
  94
  -157.157899500800       0.212728717203553      !
 C          9.5778855789        1.9857329027       -0.8369581834
 C          9.7168054250        2.9294515671        0.1704644046
 N          8.7899943378        3.1461493716        1.0881522591
 C          7.6838622448        2.4302402764        1.0426796279
 C          7.4327959495        1.4492921177        0.0822289985
 C          6.1694430887        0.6978991491        0.0822899770
 C          4.9810853863        1.3799928815        0.1528849759
 C          3.7516591743        0.6963405250        0.0930709643
 N          2.6011494424        1.3791733578        0.1703989082
 C          1.4732083333        0.6975495545        0.0925566166
 C          0.2192503209        1.4079489265        0.1815070958
 C          0.2291682404        2.7950203772        0.3623959301
 C         -0.9419534857        3.5042448112        0.4521197763
 C         -2.1625993335        2.8298642761        0.3508940070
 N         -3.3716614889        3.5470562262        0.4423731442
 C         -3.6563766305        4.5663795821       -0.4702748404
 C         -2.8496445793        4.8187864081       -1.5729055535
 C         -3.1607245355        5.8357740513       -2.4625654344
 C         -4.2886976258        6.6080346514       -2.2730714697
 C         -5.1239433174        6.3452062038       -1.1973450298
 C         -4.8192265208        5.3309762529       -0.3086476513
 O         -5.7102131441        5.1080868533        0.7111053967
 C         -5.4257410791        4.0931865854        1.5900363433
 C         -6.3316764258        3.8826362123        2.6130302216
 C         -6.1009760500        2.8984299692        3.5625464513
 C         -4.9496064733        2.1414466706        3.4891140242
 C         -4.0382654218        2.3476055046        2.4644006391
 C         -4.2688996658        3.3082125023        1.4874369119
 C         -2.1835034724        1.4575270695        0.1640060931
 C         -1.0036407270        0.7140248467        0.0863897800
 C         -1.0040641884       -0.7307666899       -0.0992562008
 C         -2.1848542458       -1.4709150072       -0.1895464217
 C         -2.1666281573       -2.8430323753       -0.3790456170
 N         -3.3784715328       -3.5534175951       -0.4849211745
 C         -4.2707988350       -3.2925884731       -1.5288319249
 C         -4.0154468300       -2.3405387922       -2.5080680645
 C         -4.9228612702       -2.1107703888       -3.5312853368
 C         -6.0951249945       -2.8354770818       -3.6010447173
 C         -6.3505785345       -3.8121036530       -2.6500475103
 C         -5.4483079157       -4.0464612942       -1.6289078291
 O         -5.7574303656       -5.0529563358       -0.7488484944
 C         -4.8700440422       -5.2990629055        0.2687698891
 C         -5.2001316227       -6.3049760007        1.1579438393
 C         -4.3699894704       -6.5907101224        2.2317239310
 C         -3.2210842616       -5.8492652371        2.4185515859
 C         -2.8848570137       -4.8403878948        1.5287862278
 C         -3.6870684927       -4.5653607977        0.4282146897
 C         -0.9471017414       -3.5207406291       -0.4699175738
 C          0.2252173229       -2.8148121516       -0.3665966196
 C          0.2180473755       -1.4280828420       -0.1830743291
 C          1.4730408971       -0.7208653663       -0.0811150456
 N          2.6010458336       -1.4038556478       -0.1476724502
 C          3.7517167743       -0.7221982854       -0.0588856446
 C          4.9816261075       -1.4062345974       -0.1063674785
 C          6.1695808078       -0.7244576319       -0.0236300256
 C          7.4336886620       -1.4743519026       -0.0110434176
 C          8.4082143695       -1.2568106780        0.9617662235
 C          9.5730093276       -2.0019582840        0.9267060880
 C          9.7240166198       -2.9456291609       -0.0791976164
 N          8.8053972001       -3.1672485243       -1.0037967928
 C          7.6961140809       -2.4554985900       -0.9681720549
 C          8.4163482216        1.2358681369       -0.8821808643
 H         10.3556127656        1.8449376067       -1.5711891824
 H         10.6040640892        3.5432201651        0.2485467624
 H          6.9595344943        2.6333576768        1.8214669099
 H          4.9628243692        2.4565544886        0.2293749641
 H          1.1865711494        3.2851853802        0.4391224992
 H         -0.9344738454        4.5728642097        0.6052185885
 H         -1.9738543999        4.2122087827       -1.7420169600
 H         -2.5121841852        6.0133812049       -3.3065124751
 H         -4.5321930289        7.4039439669       -2.9587363886
 H         -6.0236432434        6.9157887045       -1.0315765843
 H         -7.2098378191        4.5069632251        2.6522170214
 H         -6.8141733158        2.7403212728        4.3557736874
 H         -4.7444463623        1.3849142912        4.2308422117
 H         -3.1329644588        1.7621526987        2.4345624340
 H         -3.1452212096        0.9788744166        0.0720171127
 H         -3.1461627793       -0.9895986978       -0.1071186230
 H         -3.0943762329       -1.7800015939       -2.4803736221
 H         -4.6986486879       -1.3611771793       -4.2744283515
 H         -6.8058077499       -2.6581269417       -4.3922740353
 H         -7.2459417617       -4.4116545759       -2.6862082986
 H         -6.1156101868       -6.8504759212        0.9938016959
 H         -4.6333034405       -7.3799607419        2.9176924467
 H         -2.5755964252       -6.0448199924        3.2605978972
 H         -1.9928065182       -4.2576917217        1.6966979830
 H         -0.9405723491       -4.5888147222       -0.6269123958
 H          1.1818728958       -3.3077808227       -0.4350370634
 H          4.9639539102       -2.4827847921       -0.1830967610
 H          8.2448598876       -0.5251282292        1.7403581410
 H         10.3441561605       -1.8575936340        1.6671829599
 H         10.6146303100       -3.5554749212       -0.1495567460
 H          6.9784492012       -2.6631299116       -1.7518881468
 H          8.2625374790        0.5042782752       -1.6627545652
  94
  -157.157804623700       0.192408221385350      !
 C          9.6080250247        2.0451271919       -0.4046601466
 C          9.7320889789        2.8511042940        0.7177695799
 N          8.7894038060        2.9545420205        1.6390198694
 C          7.6818753604        2.2565975075        1.4828704900
 C          7.4454702678        1.4071432675        0.4010955160
 C          6.1811992208        0.6657433038        0.2872968151
 C          4.9923597689        1.3385263623        0.4157745697
 C          3.7636598300        0.6696052822        0.2566071945
 N          2.6126272726        1.3444142444        0.3826199230
 C          1.4855054987        0.6790602737        0.2103083110
 C          0.2312576414        1.3832286403        0.3385170666
 C          0.2372866460        2.7487560888        0.6421313116
 C         -0.9353533423        3.4514360885        0.7638134478
 C         -2.1537397809        2.7897695355        0.5838523304
 N         -3.3656022705        3.4984933163        0.6981986072
 C         -4.2352781856        3.6111195079       -0.3901479062
 C         -3.9570313779        3.0478514853       -1.6294381919
 C         -4.8417825808        3.1851971699       -2.6882874874
 C         -6.0128703441        3.8979397237       -2.5318930976
 C         -6.2911718020        4.4929839475       -1.3103955088
 C         -5.4126457919        4.3590423493       -0.2512928443
 O         -5.7446771971        5.0039192973        0.9138467829
 C         -4.8920340177        4.8642685776        1.9802287396
 C         -5.2572935466        5.4838866443        3.1609073211
 C         -4.4625001426        5.3613747709        4.2911119551
 C         -3.3132295821        4.5994183388        4.2347219597
 C         -2.9418798675        3.9769286792        3.0526839188
 C         -3.7089489288        4.1177958594        1.9029125116
 C         -2.1708874563        1.4364612620        0.2904119589
 C         -0.9898089563        0.7038727861        0.1565929192
 C         -0.9888273630       -0.7178173080       -0.1587077520
 C         -2.1692958330       -1.4388779403       -0.3473910735
 C         -2.1517838753       -2.7888694732       -0.6559146593
 N         -3.3641627256       -3.4781340357       -0.8534931118
 C         -4.2382375149       -3.1085248645       -1.8797010321
 C         -3.9552953130       -2.0758376997       -2.7652803908
 C         -4.8449287020       -1.7401385812       -3.7745718614
 C         -6.0258171004       -2.4378798203       -3.9252209578
 C         -6.3090352339       -3.4921379150       -3.0696493057
 C         -5.4252922685       -3.8313897113       -2.0620053235
 O         -5.7623545976       -4.9067782642       -1.2787533810
 C         -4.9060396967       -5.2412540763       -0.2596673051
 C         -5.2778156863       -6.2981041789        0.5503178907
 C         -4.4802909268       -6.6741219099        1.6210931667
 C         -3.3212105045       -5.9729848141        1.8846189825
 C         -2.9433216975       -4.9128776551        1.0746909859
 C         -3.7136353468       -4.5451209029       -0.0214738511
 C         -0.9330832970       -3.4637360498       -0.7736207500
 C          0.2392215753       -2.7752300141       -0.5847139318
 C          0.2328725326       -1.4096892284       -0.2811375150
 C          1.4866963603       -0.7165754387       -0.0982342072
 N          2.6151391918       -1.3913752577       -0.2183922471
 C          3.7650855218       -0.7241417539       -0.0479141524
 C          4.9953105881       -1.4003843736       -0.1582510016
 C          6.1822609765       -0.7342241623        0.0154608487
 C          7.4468946103       -1.4806823849       -0.0515624407
 C          8.4107120141       -1.3890671779        0.9511717221
 C          9.5774981067       -2.1225915976        0.8326399536
 C          9.7413603886       -2.9281048329       -0.2850327301
 N          8.8326164095       -3.0300175925       -1.2399239283
 C          7.7210913831       -2.3304946229       -1.1240524978
 C          8.4451648183        1.3134432218       -0.5656336048
 H         10.3982103196        1.9955670284       -1.1374041869
 H         10.6199796590        3.4446408286        0.8892670244
 H          6.9437613307        2.3628716796        2.2679508953
 H          4.9736854943        2.3991816524        0.6153367693
 H          1.1932216577        3.2316767534        0.7678669879
 H         -0.9301155057        4.5074945679        0.9874959582
 H         -3.0363229528        2.5052996927       -1.7747894175
 H         -4.6005330293        2.7320244024       -3.6374007582
 H         -6.7050994180        4.0066031346       -3.3515290248
 H         -7.1865357243        5.0743509883       -1.1592273659
 H         -6.1720242976        6.0543724196        3.1761264254
 H         -4.7536075023        5.8509045460        5.2068048992
 H         -2.6954821530        4.4764429136        5.1108363269
 H         -2.0504271729        3.3701452346        3.0274616500
 H         -3.1319639791        0.9616131132        0.1758793179
 H         -3.1305611496       -0.9603764922       -0.2511755467
 H         -3.0259225437       -1.5358523350       -2.6764146349
 H         -4.5993499085       -0.9305213567       -4.4442868723
 H         -6.7228542915       -2.1787039832       -4.7060842322
 H         -7.2129445164       -4.0710940532       -3.1709153388
 H         -6.1999843734       -6.8110674109        0.3288313980
 H         -4.7758836525       -7.5028583468        2.2446767873
 H         -2.7013998372       -6.2385883558        2.7268994618
 H         -2.0444329901       -4.3622023430        1.3031548052
 H         -0.9270727448       -4.5148361665       -1.0196559507
 H          1.1953837405       -3.2654090312       -0.6764163463
 H          4.9785520011       -2.4608763610       -0.3589090892
 H          8.2377884706       -0.7639921467        1.8158157270
 H         10.3407359319       -2.0739759117        1.5934770233
 H         10.6344347069       -3.5222025478       -0.4246885818
 H          7.0121662709       -2.4352469705       -1.9357686749
 H          8.3030974656        0.6881735656       -1.4357245703
  94
  -157.157285884900       0.111129095247684      !
 C          8.9238700179        3.2386354614        0.2452890400
 C          9.7952232678        2.6317741144        1.1373532564
 N          9.5303015948        1.4828296266        1.7363353827
 C          8.3954197266        0.8761672304        1.4546608897
 C          7.4509352490        1.3760300626        0.5555943473
 C          6.1921889457        0.6630885606        0.2975867519
 C          5.0023587586        1.3384530830        0.4007701092
 C          3.7747483200        0.6693795264        0.2348656398
 N          2.6234056869        1.3469641018        0.3415782637
 C          1.4965158156        0.6747600394        0.1951215331
 C          0.2423547055        1.3811826076        0.3083523386
 C          0.2441222686        2.7646150995        0.5164852474
 C         -0.9306680931        3.4668124773        0.6191758393
 C         -2.1492249195        2.7838865057        0.5445011475
 N         -3.3635377102        3.4866099285        0.6478825575
 C         -4.3160776256        3.4290383056       -0.3756964693
 C         -4.1153836400        2.7110144858       -1.5488338681
 C         -5.0883450299        2.6701615618       -2.5356488059
 C         -6.2735879970        3.3586657270       -2.3775533663
 C         -6.4731549922        4.1150748954       -1.2327696667
 C         -5.5053271520        4.1598868761       -0.2460461196
 O         -5.7643002510        4.9641918169        0.8348866518
 C         -4.8370600119        4.9831658363        1.8459049785
 C         -5.1365548895        5.7522950525        2.9552045749
 C         -4.2677358852        5.7916846981        4.0353178710
 C         -3.1128953750        5.0365745510        4.0054796498
 C         -2.8073080702        4.2657078820        2.8944046484
 C         -3.6455051709        4.2487282203        1.7862132865
 C         -2.1602955449        1.4113922357        0.3562666524
 C         -0.9779736878        0.6848918185        0.2069505926
 C         -0.9765392177       -0.7428846556       -0.0761965331
 C         -2.1579690951       -1.4644525435       -0.2507460305
 C         -2.1452326158       -2.8077926557       -0.5889564680
 N         -3.3622281494       -3.4795316094       -0.8098506697
 C         -4.2575728418       -3.0237150102       -1.7832198056
 C         -3.9692699901       -1.9537900554       -2.6222702759
 C         -4.8845397749       -1.5256898985       -3.5712971505
 C         -6.0986544583       -2.1663827277       -3.7100300388
 C         -6.3854197137       -3.2619893951       -2.9098787818
 C         -5.4746483755       -3.6948910700       -1.9638114099
 O         -5.8161269120       -4.8104358218       -1.2419215748
 C         -4.9345144144       -5.2369982245       -0.2806921963
 C         -5.3082641335       -6.3395919959        0.4650326526
 C         -4.4893891330       -6.8078789713        1.4814903726
 C         -3.3080545459       -6.1505893311        1.7587857838
 C         -2.9276275221       -5.0459424274        1.0120181816
 C         -3.7171928806       -4.5879159622       -0.0353738711
 C         -0.9268346908       -3.4794078574       -0.7295209781
 C          0.2470091243       -2.7936468398       -0.5369785777
 C          0.2447119265       -1.4306778352       -0.2217556844
 C          1.4985295851       -0.7309461260       -0.0657842605
 N          2.6278260924       -1.4062201366       -0.1769524637
 C          3.7773917048       -0.7317509804       -0.0331743017
 C          5.0092618785       -1.4032911645       -0.1534254735
 C          6.1960154582       -0.7305092868       -0.0046675773
 C          7.4641870446       -1.4440227766       -0.2097660873
 C          7.7217084143       -2.6653692878        0.4081529853
 C          8.9283102345       -3.3000898218        0.1719028727
 C          9.8373213786       -2.6917960667       -0.6806996287
 N          9.5949804105       -1.5462333968       -1.2955889410
 C          8.4460504496       -0.9435184010       -1.0676555347
 C          7.7316930852        2.5999052003       -0.0470776109
 H          9.1734175980        4.1835165502       -0.2116536101
 H         10.7445998328        3.0828188738        1.3924084700
 H          8.2158574416       -0.0498091166        1.9854871240
 H          4.9793326911        2.3913430475        0.6381757523
 H          1.1986424086        3.2627517047        0.5765477139
 H         -0.9265377262        4.5382718357        0.7507034031
 H         -3.1859169623        2.1869073931       -1.7037130533
 H         -4.9055314754        2.0953850627       -3.4302258130
 H         -7.0366445823        3.3244409312       -3.1386344532
 H         -7.3750115012        4.6876830703       -1.0870803902
 H         -6.0595770570        6.3095957207        2.9551345958
 H         -4.5064991483        6.3986045232        4.8941015227
 H         -2.4384400363        5.0358207900        4.8477887141
 H         -1.9108111449        3.6661693730        2.8945133572
 H         -3.1178092907        0.9169826833        0.3302855540
 H         -3.1178769061       -0.9875243020       -0.1355165676
 H         -3.0165631170       -1.4546521970       -2.5444258756
 H         -4.6327116361       -0.6885989279       -4.2037105052
 H         -6.8171964803       -1.8328744075       -4.4413718303
 H         -7.3129999677       -3.8025702673       -3.0083044199
 H         -6.2494130413       -6.8139568854        0.2373058987
 H         -4.7870464832       -7.6709723966        2.0551463067
 H         -2.6710114225       -6.4874494249        2.5619851840
 H         -2.0113061030       -4.5310840893        1.2537316159
 H         -0.9206120812       -4.5238199778       -1.0022260051
 H          1.2020686170       -3.2826576225       -0.6452600254
 H          4.9935186829       -2.4558720634       -0.3922138105
 H          6.9900530996       -3.0953699933        1.0779349605
 H          9.1605355681       -4.2427788747        0.6424973330
 H         10.7995353388       -3.1393203374       -0.8902147945
 H          8.2871033461       -0.0197194529       -1.6089095765
 H          7.0296953484        3.0289004435       -0.7484350383
  94
  -157.157188815700       0.100280816862698      !
 C          9.6112710667        2.0550840590       -0.3922798416
 C          9.7359496356        2.8503509574        0.7376473650
 N          8.7956890482        2.9417153238        1.6627898923
 C          7.6898987712        2.2418368240        1.5028400520
 C          7.4529887704        1.4025246599        0.4132319495
 C          6.1898229188        0.6600981113        0.2951095130
 C          5.0007051637        1.3304237950        0.4342700193
 C          3.7722012766        0.6625981448        0.2707056297
 N          2.6212449420        1.3367611966        0.4027054859
 C          1.4941910645        0.6718599982        0.2292546684
 C          0.2404418625        1.3753156498        0.3640924869
 C          0.2452339548        2.7475948841        0.6348766364
 C         -0.9281691523        3.4491705582        0.7573983301
 C         -2.1474385637        2.7765341325        0.6294267920
 N         -3.3602872938        3.4802570603        0.7507917555
 C         -4.2853850398        3.5033749856       -0.2980814372
 C         -4.0591860649        2.8641238175       -1.5110438285
 C         -5.0028417444        2.9066289051       -2.5262325322
 C         -6.1824401142        3.6011134581       -2.3546008130
 C         -6.4077579561        4.2773351352       -1.1648605296
 C         -5.4701680970        4.2382682141       -0.1494983429
 O         -5.7531185529        4.9631707628        0.9805307892
 C         -4.8494433737        4.9070219875        2.0117292600
 C         -5.1690304050        5.6019193351        3.1634159781
 C         -4.3242397084        5.5621131841        4.2626863977
 C         -3.1724870316        4.8038534610        4.2069778529
 C         -2.8465334471        4.1072421492        3.0533522737
 C         -3.6613988183        4.1688845940        1.9296487831
 C         -2.1624347510        1.4146903643        0.3752030525
 C         -0.9810452823        0.6882785634        0.2185310498
 C         -0.9803281525       -0.7301661775       -0.1095725057
 C         -2.1618307875       -1.4482504029       -0.2998733319
 C         -2.1480290300       -2.7827406991       -0.6715871893
 N         -3.3628705556       -3.4560915308       -0.8978311351
 C         -4.2662773353       -2.9927886791       -1.8602034176
 C         -4.0055429444       -1.8883322359       -2.6626978482
 C         -4.9294146494       -1.4544769021       -3.6011338557
 C         -6.1242329984       -2.1242923339       -3.7670109238
 C         -6.3832713011       -3.2527791914       -3.0036595091
 C         -5.4646959282       -3.6901448722       -2.0672207937
 O         -5.7796431348       -4.8360410869       -1.3815036604
 C         -4.8926610368       -5.2675454758       -0.4278307706
 C         -5.2420300787       -6.3997269800        0.2848807877
 C         -4.4155655911       -6.8761634363        1.2914354476
 C         -3.2521044501       -6.1978266819        1.5932645524
 C         -2.8966238651       -5.0631747646        0.8802213204
 C         -3.6929813493       -4.5957591513       -0.1581211709
 C         -0.9289603027       -3.4483901761       -0.8355563925
 C          0.2443783243       -2.7674388295       -0.6267656474
 C          0.2408173264       -1.4140293520       -0.2722494195
 C          1.4949917032       -0.7225364044       -0.0868401110
 N          2.6233351498       -1.3955134801       -0.2170541633
 C          3.7734718907       -0.7283576515       -0.0456055692
 C          5.0038296490       -1.4021781779       -0.1672886392
 C          6.1910160527       -0.7364802896        0.0073532820
 C          7.4558042710       -1.4809214939       -0.0757731643
 C          8.4254032150       -1.4007754870        0.9223309266
 C          9.5921673060       -2.1317272830        0.7879595322
 C          9.7498007002       -2.9236909925       -0.3402611688
 N          8.8357065089       -3.0142594131       -1.2912843426
 C          7.7245087172       -2.3168930992       -1.1605602042
 C          8.4502224475        1.3213628398       -0.5570869177
 H         10.3998397325        2.0154365288       -1.1273653161
 H         10.6222848805        3.4451928242        0.9126415236
 H          6.9539710187        2.3377741108        2.2912711834
 H          4.9816883236        2.3891647598        0.6436521244
 H          1.2007001124        3.2386199215        0.7288834143
 H         -0.9215084737        4.5124444543        0.9436595072
 H         -3.1325441373        2.3372394266       -1.6737362693
 H         -4.8004263324        2.3931966407       -3.4533824223
 H         -6.9223520332        3.6340371034       -3.1383459799
 H         -7.3074460091        4.8499794147       -1.0063832411
 H         -6.0882772769        6.1650921058        3.1814766048
 H         -4.5790496916        6.1110716392        5.1551647576
 H         -2.5162683243        4.7423177532        5.0613531316
 H         -1.9526289435        3.5041946077        3.0315152187
 H         -3.1225323294        0.9297006391        0.3038879707
 H         -3.1216092829       -0.9765308007       -0.1642208338
 H         -3.0672992089       -1.3657796781       -2.5654987499
 H         -4.6993187983       -0.5892412533       -4.2033856727
 H         -6.8492813435       -1.7878263977       -4.4907520899
 H         -7.2947877660       -3.8158933821       -3.1241133995
 H         -6.1697739397       -6.8911226486        0.0393055165
 H         -4.6932184669       -7.7627323652        1.8390107777
 H         -2.6102076733       -6.5419425980        2.3894676891
 H         -1.9945904693       -4.5324430235        1.1406567493
 H         -0.9231353518       -4.4854364095       -1.1352327878
 H          1.1999268194       -3.2521720345       -0.7485436145
 H          4.9874218248       -2.4608904808       -0.3771340374
 H          8.2569670626       -0.7861065062        1.7952920621
 H         10.3600982506       -2.0914151091        1.5445507411
 H         10.6427923177       -3.5146255236       -0.4932377849
 H          7.0103547497       -2.4129243492       -1.9687951385
 H          8.3071259177        0.7041621679       -1.4327928553
  94
  -157.157034228900       8.514804647892117E-002 !
 C          9.5688349544        2.0033503147       -0.6603364819
 C          9.7010756088        2.9081247320        0.3830444512
 N          8.7661840694        3.0936411304        1.2994140686
 C          7.6588514839        2.3831293321        1.2173314594
 C          7.4151782139        1.4378763113        0.2197381675
 C          6.1523153427        0.6859274507        0.1873225661
 C          4.9619654956        1.3639803149        0.2594747234
 C          3.7352869724        0.6778442840        0.1769746035
 N          2.5823899665        1.3573324847        0.2472755617
 C          1.4573883469        0.6756482943        0.1488312579
 C          0.2007621050        1.3868163157        0.2336850480
 C          0.2114658186        2.7705954325        0.4317884982
 C         -0.9626534929        3.4765501484        0.5345765577
 C         -2.1757396707        2.7942153066        0.4419947796
 N         -3.3985317137        3.5035058572        0.5672933980
 C         -3.9639239923        4.1276042350       -0.5408217963
 C         -3.4336515667        3.9805941972       -1.8148592572
 C         -4.0270486526        4.6061417810       -2.9019608383
 C         -5.1527934503        5.3841090896       -2.7279477976
 C         -5.6942417998        5.5381798830       -1.4582552150
 C         -5.1106224317        4.9157050257       -0.3722372047
 O         -5.6991751865        5.1031749051        0.8559524325
 C         -5.0952159625        4.5200164003        1.9447084417
 C         -5.6641270679        4.7449859042        3.1831007399
 C         -5.1036159327        4.1842560646        4.3233288859
 C         -3.9725582674        3.4018519170        4.2157549998
 C         -3.3952589944        3.1728184512        2.9751242005
 C         -3.9468061861        3.7253972329        1.8275557218
 C         -2.2009613339        1.4283143208        0.2368331123
 C         -1.0187435870        0.6902708444        0.1242723609
 C         -1.0152872237       -0.7485391361       -0.0997669719
 C         -2.1943423280       -1.4784202968       -0.2618564426
 C         -2.1752820205       -2.8456945457       -0.4845191305
 N         -3.3851971480       -3.5394560086       -0.6790260954
 C         -4.2099956428       -3.2405227562       -1.7683367928
 C         -3.8884766854       -2.2629564201       -2.7019304961
 C         -4.7293345144       -1.9961032756       -3.7717781796
 C         -5.8995598065       -2.7089477760       -3.9348602145
 C         -6.2196126236       -3.7103522941       -3.0303827229
 C         -5.3840903498       -3.9810369859       -1.9624901434
 O         -5.7545256135       -5.0087730514       -1.1322749341
 C         -4.9309876131       -5.2954336340       -0.0726987501
 C         -5.3204981436       -6.3260800483        0.7624633593
 C         -4.5592393017       -6.6512960598        1.8752054678
 C         -3.4195531054       -5.9249954336        2.1551221138
 C         -3.0230451991       -4.8922945035        1.3191214276
 C         -3.7548225979       -4.5774769998        0.1808953721
 C         -0.9562507574       -3.5294183992       -0.5285251128
 C          0.2144705785       -2.8315593943       -0.3671028029
 C          0.2071965096       -1.4476145675       -0.1622385538
 C          1.4598963284       -0.7414867151       -0.0317429193
 N          2.5905469182       -1.4218862947       -0.0917604646
 C          3.7388245783       -0.7391871942        0.0101872976
 C          4.9714395868       -1.4188738853       -0.0420635317
 C          6.1564325466       -0.7342369367        0.0540193670
 C          7.4241728276       -1.4786698272        0.0449557428
 C          8.3970708582       -1.2914988112        1.0252908145
 C          9.5659900915       -2.0286370568        0.9628303340
 C          9.7225527849       -2.9330417795       -0.0775867974
 N          8.8055376448       -3.1248274776       -1.0104661086
 C          7.6922028006       -2.4215378697       -0.9484311737
 C          8.4063561292        1.2580046613       -0.7434236324
 H         10.3526637518        1.8883095841       -1.3925905096
 H         10.5898760457        3.5147306716        0.4931196332
 H          6.9269729000        2.5599214181        1.9955163201
 H          4.9398784178        2.4390738918        0.3537313340
 H          1.1688508706        3.2615857420        0.5047137186
 H         -0.9616041708        4.5448072734        0.6902125404
 H         -2.5520146895        3.3735292368       -1.9539592180
 H         -3.5979997912        4.4774555762       -3.8838205144
 H         -5.6173050527        5.8739768924       -3.5690588110
 H         -6.5732782750        6.1404434196       -1.2933983551
 H         -6.5462141079        5.3626058299        3.2378092560
 H         -5.5562058584        4.3654554612        5.2853587781
 H         -3.5270059673        2.9614054335        5.0944508600
 H         -2.5096359608        2.5610360821        2.8951781741
 H         -3.1652200071        0.9505012408        0.1723388698
 H         -3.1550850950       -0.9911755226       -0.2193883809
 H         -2.9673685566       -1.7108435958       -2.6020994368
 H         -4.4547118496       -1.2271434920       -4.4771800292
 H         -6.5586285646       -2.5030599137       -4.7628219425
 H         -7.1148357171       -4.3012356870       -3.1391125615
 H         -6.2277204712       -6.8587194684        0.5263857853
 H         -4.8690702517       -7.4589375058        2.5191475311
 H         -2.8286298111       -6.1509487141        3.0294082103
 H         -2.1399583980       -4.3212766836        1.5595772858
 H         -0.9481506998       -4.5946376889       -0.7038708112
 H          1.1705224901       -3.3286687728       -0.4100605081
 H          4.9580750965       -2.4940748871       -0.1366340624
 H          8.2298813005       -0.5900090488        1.8304473621
 H         10.3363130325       -1.9077320619        1.7082993382
 H         10.6166674268       -3.5345903552       -0.1707572228
 H          6.9759186149       -2.6026179173       -1.7399451618
 H          8.2580908297        0.5561632531       -1.5520086859
