  144
       -230.28406498
 O          0.2346968932        6.0868041825       -1.6281854204
 C          0.2569373834        5.0161581995       -0.9652804616
 C          1.5451359521        4.3849778452       -0.6900226278
 C          1.8205039520        3.6279501585        0.4611918746
 C          3.0181606048        2.9664356757        0.5906807485
 C          3.9928192067        3.0730013764       -0.4034640125
 N          5.1917019687        2.3475780125       -0.2773711946
 C          6.4038748014        2.9445102910       -0.0061372860
 C          6.7117560643        4.2961570977       -0.0131026165
 C          7.9844739658        4.6682490667        0.3733403442
 C          8.9056565543        3.7150676561        0.7965070749
 C          8.5946063673        2.3686024540        0.8194566689
 C          7.3413212353        1.9562327465        0.3772611448
 C          6.6468022671        0.6975934369        0.2953812636
 C          6.9873794547       -0.6439082249        0.5026441728
 C          5.9933498285       -1.6595719567        0.5611424419
 C          6.6889168262       -2.8974880388        0.7839834093
 C          6.3243733333       -4.2422628266        0.8161908472
 C          7.2997128289       -5.2016102934        0.9991524632
 C          8.6420488301       -4.8570919778        1.1199356214
 C          9.0416479432       -3.5367858920        1.0411071790
 C          8.0630229918       -2.5700070474        0.8783691240
 N          8.2233743628       -1.2079372255        0.7100595413
 C          9.4710969010       -0.6264210687        0.4255660316
 C          9.6838432083       -0.0093724698       -0.8032968798
 C         10.9188565498        0.5397795193       -1.0916414333
 C         11.9479663271        0.4668386842       -0.1672168348
 C         11.7388908540       -0.1547041234        1.0526681007
 C         10.5042297102       -0.7012702887        1.3539119762
 C          4.6599904922       -1.2975114132        0.3101847752
 C          4.3340086944       -0.0094418951       -0.1775325432
 C          2.9622609059       -0.0690835051       -0.5984036339
 C          2.1158111864        0.7741187602       -1.3165717373
 C          0.8110944479        0.3858577186       -1.5361446731
 C          0.3240163295       -0.8238343359       -1.0446926043
 C          1.1563430109       -1.7099654341       -0.3914608121
 C          2.4842727651       -1.3463813604       -0.2155967564
 N          3.5204096729       -2.0755873909        0.3323133162
 C          3.3360506550       -3.2526512378        1.0726891331
 C          3.7713208672       -3.3103965059        2.3941790171
 C          3.5789770145       -4.4619018130        3.1332400822
 C          2.9420760399       -5.5550868846        2.5686877884
 C          2.5031455296       -5.4966804242        1.2563240815
 C          2.6993692448       -4.3521577356        0.5044683763
 C          5.3120606268        0.9985905718       -0.0866079238
 C          3.7861633445        3.9343232034       -1.4839123338
 C          2.5852643922        4.5865657431       -1.6168918658
 C         -0.9710785727        4.3806524680       -0.5404257974
 C         -1.0700042773        3.0468526356       -0.0973462064
 C         -2.2893751372        2.4879394070        0.1879828433
 C         -3.4689401260        3.2238113790        0.0239333343
 N         -4.7050998481        2.6250994419        0.3061630676
 C         -5.5946186078        3.1096154448        1.2438151479
 C         -5.5509655824        4.3157784261        1.9257988267
 C         -6.5236803973        4.5586636876        2.8763693502
 C         -7.4905515026        3.6011344462        3.1624885335
 C         -7.5190354755        2.3852550063        2.5053029475
 C         -6.5814901843        2.1288545354        1.5100753129
 C         -6.2570112637        0.9983399542        0.6779406003
 C         -6.7367944350       -0.3087947845        0.5423225506
 C         -5.9799328432       -1.2991865222       -0.1464965852
 C         -6.5952395535       -2.5595280761        0.1524312965
 C         -6.2520201851       -3.8941823735       -0.0570954867
 C         -7.1219282119       -4.8822783649        0.3569118840
 C         -8.3288153963       -4.5697607041        0.9748572541
 C         -8.6629656027       -3.2578796293        1.2578472226
 C         -7.7722627037       -2.2658409155        0.8838079663
 N         -7.8429578862       -0.9033460941        1.1072578471
 C         -9.0058811286       -0.2511401401        1.5458384290
 C         -9.5841567593        0.7344077987        0.7501131980
 C        -10.7425106458        1.3630296960        1.1656436452
 C        -11.3374332250        1.0074187587        2.3652834274
 C        -10.7645183053        0.0248796737        3.1559349830
 C         -9.6004223649       -0.6048495434        2.7533386953
 C         -4.9329450141       -0.8687231575       -0.9775015098
 C         -4.5090028031        0.4806067967       -0.9813467066
 C         -3.5247493429        0.6022180085       -2.0179773778
 C         -2.8611435238        1.6672493729       -2.6264273184
 C         -1.9937599885        1.4079075642       -3.6661365759
 C         -1.7900359917        0.1116148788       -4.1385932916
 C         -2.4794005740       -0.9544293413       -3.5989062213
 C         -3.3456574424       -0.6993455007       -2.5452656925
 N         -4.1963187888       -1.5754695947       -1.9021620733
 C         -4.4695762500       -2.8561996447       -2.4144486619
 C         -5.7311337482       -3.1499878674       -2.9216421540
 C         -5.9841073284       -4.4016624525       -3.4502028235
 C         -4.9832206220       -5.3586117210       -3.4865857389
 C         -3.7239263209       -5.0623061438       -2.9920159580
 C         -3.4621498177       -3.8140256757       -2.4565189723
 C         -5.0903578196        1.3625582867       -0.0494024336
 C         -3.3918683204        4.5470262820       -0.4266033234
 C         -2.1726732327        5.1093525288       -0.6991496383
 H          1.1029006339        3.5874518758        1.2659784568
 H          3.2209677083        2.3638673938        1.4646355767
 H          5.9724662401        5.0305105360       -0.2932056370
 H          8.2586886440        5.7123086568        0.3725362563
 H          9.8818598651        4.0343542230        1.1301702762
 H          9.3141857368        1.6660500013        1.2027920938
 H          5.3028432199       -4.5485931303        0.6778257051
 H          7.0150349876       -6.2426416800        1.0330237006
 H          9.3831151126       -5.6307937088        1.2532179748
 H         10.0866450782       -3.2707239598        1.0836423770
 H          8.8773738481        0.0398085195       -1.5190406369
 H         11.0796366867        1.0230650166       -2.0432934122
 H         12.9117857070        0.8956117579       -0.3959982312
 H         12.5380450510       -0.2085687857        1.7770248991
 H         10.3273895991       -1.1665795775        2.3123193185
 H          2.4699556552        1.7065134281       -1.7201222720
 H          0.1491635993        1.0282474612       -2.0961139710
 H         -0.7140055560       -1.0755778179       -1.2025597671
 H          0.7851114627       -2.6570836341       -0.0304822321
 H          4.2648564575       -2.4534046649        2.8271849024
 H          3.9236265947       -4.5047379697        4.1553971049
 H          2.7915792195       -6.4526811291        3.1490073324
 H          2.0141892687       -6.3505365991        0.8110578014
 H          2.3896482256       -4.3139013413       -0.5291396799
 H          4.5607185207        4.0474453554       -2.2287838682
 H          2.3954937799        5.2348487372       -2.4586260769
 H         -0.1890688859        2.4301517803       -0.0203507798
 H         -2.3488922089        1.4651033380        0.5305938677
 H         -4.7690912307        5.0337350408        1.7347908408
 H         -6.5193782176        5.4928627348        3.4170604396
 H         -8.2262840683        3.8023977949        3.9268881911
 H         -8.2529853081        1.6518565934        2.7884050103
 H         -5.3124303849       -4.1632549338       -0.5084578220
 H         -6.8613778783       -5.9176381814        0.1960850680
 H         -9.0037773008       -5.3625859257        1.2601819291
 H         -9.5890423603       -3.0197236373        1.7578247391
 H         -9.1145770471        1.0048600950       -0.1836352773
 H        -11.1850066079        2.1304521217        0.5486854632
 H        -12.2435868812        1.4983814282        2.6861320792
 H        -11.2207227627       -0.2475036546        4.0961107724
 H         -9.1332866181       -1.3491432962        3.3806579636
 H         -3.0327312830        2.6831753325       -2.3160794712
 H         -1.4712806857        2.2290326535       -4.1336857005
 H         -1.1016326638       -0.0566788677       -4.9529163631
 H         -2.3645082692       -1.9513546367       -3.9968215181
 H         -6.5035708887       -2.3964479373       -2.8935998814
 H         -6.9650197089       -4.6293409854       -3.8389469236
 H         -5.1839980366       -6.3350333831       -3.9006298079
 H         -2.9426013720       -5.8074015939       -3.0184430937
 H         -2.4868505344       -3.5794635954       -2.0558507053
 H         -4.3019834035        5.1051564591       -0.5939970845
 H         -2.0979793199        6.1217120870       -1.0666113382
