  89
       -139.15968754
 C         10.1357967865        3.9216556286       -0.9148628250
 C         10.3702749912        2.5959141545       -1.2426018987
 C          9.3998915361        1.6420304432       -1.0056194727
 C          8.1760741038        2.0037922510       -0.4457158497
 C          7.1619147674        0.9663348993       -0.2167504240
 C          5.7946240011        1.2399948388       -0.2154055172
 C          4.9291619476        0.1672258691       -0.0030387712
 C          3.4695176853        0.3128744476        0.0177744290
 C          2.8199255293        1.3750515445       -0.6086200429
 C          1.4447342095        1.4789388245       -0.5700200463
 C          0.6865482450        0.5243168080        0.1040232669
 N         -0.7071564767        0.6372259090        0.1482919453
 C         -1.4120211635        1.7622629294        0.5270371297
 C         -0.9312338309        2.9812502569        0.9820952153
 C         -1.8529701452        3.9490967018        1.3304977055
 C         -3.2208925582        3.7081695534        1.2372000608
 C         -3.7041054031        2.4876902156        0.8093592528
 C         -2.7989634686        1.4963588892        0.4530007999
 C         -2.9298921427        0.1378012374       -0.0031829990
 C         -3.9847592351       -0.7117494001       -0.2966421043
 C         -3.7111330011       -2.0064599190       -0.7598503822
 C         -2.4086076436       -2.4593178091       -0.9498123434
 C         -1.3438002865       -1.6299840997       -0.6603220622
 C         -1.6091073769       -0.3553703761       -0.1755428398
 C         -4.9694191429       -2.6948834788       -0.9897436821
 C         -5.2442558868       -3.9768301030       -1.4378127579
 C         -6.5678194491       -4.3684085083       -1.5573806658
 C         -7.6003385042       -3.4998288102       -1.2372064482
 C         -7.3324660291       -2.2133801453       -0.7885920804
 C         -6.0174004354       -1.8233550767       -0.6692456633
 C         -5.4720025763       -0.4883956777       -0.2045303924
 C         -6.0072128305       -0.1476058250        1.1643906123
 C         -5.7726501255       -0.7885115574        2.3602319968
 C         -6.4153451211       -0.3191460687        3.4979715428
 C         -7.2803836990        0.7623792425        3.4306134041
 C         -7.5197081885        1.4091078003        2.2286526290
 C         -6.8770003819        0.9508843781        1.0907648726
 C         -6.8911130713        1.4358921012       -0.2817659904
 C         -7.5509373762        2.5038991862       -0.8664010331
 C         -7.3374374225        2.7585781322       -2.2116940521
 C         -6.4817041510        1.9646459909       -2.9600335768
 C         -5.8220614499        0.8877969834       -2.3826078253
 C         -6.0303884382        0.6328480015       -1.0456470222
 C          1.3291903987       -0.5428394117        0.7291325887
 C          2.7023735589       -0.6468805171        0.6786552523
 N          5.4034784872       -1.0586281933        0.2100548037
 C          6.7195466741       -1.2315601570        0.1889842862
 C          7.2293597936       -2.5859793451        0.4228920744
 C          8.5956425164       -2.8002571708        0.5916177883
 C          9.0745200057       -4.0763029494        0.8170481648
 C          8.1979927003       -5.1484639521        0.8746459852
 C          6.8379795317       -4.9411914142        0.7059786129
 C          6.3528946319       -3.6672294328        0.4818360931
 N          7.6113199407       -0.2710998402       -0.0265972268
 C          7.9511702685        3.3368964744       -0.1116153137
 C          8.9278815095        4.2873464035       -0.3442185154
 H         10.8943996665        4.6682259908       -1.0984838616
 H         11.3136174637        2.3071373221       -1.6824203111
 H          9.5672925546        0.6050368335       -1.2525303314
 H          5.4261214596        2.2387863559       -0.3758131793
 H          3.3854584302        2.1130717014       -1.1573576274
 H          0.9452462159        2.2898097319       -1.0790086280
 H          0.1287977369        3.1648056227        1.0730929907
 H         -1.5052706169        4.9084937650        1.6843337221
 H         -3.9150145063        4.4873785480        1.5143584177
 H         -4.7643051146        2.3098070822        0.7596423516
 H         -2.2323489229       -3.4547429571       -1.3280022064
 H         -0.3283180109       -1.9590253335       -0.8199171583
 H         -4.4447159122       -4.6584918901       -1.6876069876
 H         -6.8000003356       -5.3649031302       -1.9045183895
 H         -8.6246146096       -3.8273945239       -1.3377520186
 H         -8.1359201261       -1.5353922020       -0.5388005599
 H         -5.1028493783       -1.6346043000        2.4107242454
 H         -6.2411729745       -0.8041630945        4.4472206591
 H         -7.7711864106        1.1076685784        4.3290303835
 H         -8.1907827767        2.2542180407        2.1820332486
 H         -8.2157846485        3.1271257265       -0.2865937327
 H         -7.8432987535        3.5880237963       -2.6842973980
 H         -6.3278618405        2.1855381208       -4.0060798051
 H         -5.1577998911        0.2668856425       -2.9658817388
 H          0.7440036948       -1.2763335526        1.2634630267
 H          3.2110130264       -1.4666430553        1.1612375984
 H          9.2630168626       -1.9538398569        0.5466628698
 H         10.1343611016       -4.2388686412        0.9493683864
 H          8.5747480987       -6.1455116453        1.0515893868
 H          6.1559737005       -5.7780335896        0.7497559776
 H          5.2978124875       -3.4888828356        0.3446369893
 H          7.0214603921        3.6312813815        0.3530178424
 H          8.7472349666        5.3182901317       -0.0765133088
