80
 energy: -125.520627901429 gnorm: 0.000082304276 xtb: 6.7.1 (edcfbbe)
C            7.95013163127861       -4.80732671628186        0.39819534144872
C            6.56440935844647       -4.82434490606512        0.32395784442891
C            5.85915050247727       -3.64148383960072        0.23226944157181
C            6.53421218184520       -2.41940843764210        0.21202639986303
C            5.79445120182959       -1.16517100475349        0.11309219388533
N            6.50531865693666       -0.02251882205489        0.01363702644333
C            5.78580612420774        1.11539809071905       -0.08051703164257
C            6.51547893054924        2.37477984693416       -0.18626396524812
C            5.83078415853348        3.59153504035265       -0.20756761872720
C            6.52634270037959        4.77957823775337       -0.30567196816085
C            7.91188021035852        4.77320764031966       -0.38527266460278
C            8.59931925399946        3.56886847464444       -0.36529941073998
C            7.90920948671695        2.37683465779235       -0.26614885054494
N            4.47730713294645        1.14386221625454       -0.08397883255400
C            3.80700990151515       -0.03183814898336        0.02433611567052
C            2.38855147484018       -0.03619944016446        0.02851648445182
C            1.65759009233022        1.16691457560309       -0.09393610548640
C            0.28709714494049        1.16136221926675       -0.09460047752523
C           -0.41184830452837       -0.04443530954790        0.02728418392662
N           -1.83566732145561       -0.04623315194181        0.02079162360972
C           -2.51024710309810        0.33352269816463        1.16204555535190
C           -1.79616937520810        0.66468277880310        2.32382831589362
C           -2.45630240181056        1.05077855342547        3.46858024853394
C           -3.84392655526756        1.11421804746950        3.48873861048036
C           -4.55748176780419        0.77528853345210        2.35435579315932
C           -3.91303079143769        0.38123195233262        1.19046936275481
C           -4.73844745130662        0.01142622512150       -0.01113199710177
C           -5.77377124026260       -1.04189329855668        0.35359700843279
C           -5.55629828531191       -2.32406598884608        0.80671338197996
C           -6.65891172243770       -3.12237583867036        1.08483230567592
C           -7.94713801538876       -2.63970758347895        0.91009827791434
C           -8.16842427092283       -1.34958986389947        0.45373219971027
C           -7.07338492102152       -0.54800587756266        0.17475206157910
C           -6.98699082138597        0.82266320842854       -0.30742524268809
C           -7.97351044021222        1.73800522525852       -0.63677821785292
C           -7.59157385595772        2.99569917840246       -1.07702803036476
C           -6.25156736317317        3.33532919378857       -1.18705774411947
C           -5.25714990365735        2.42183225707045       -0.86000819631728
C           -5.63459586838841        1.17207870466704       -0.42197005442483
C           -3.90291145434961       -0.43602214490896       -1.17897979205872
C           -4.53772062450798       -0.83882256726407       -2.34519420832354
C           -3.81466167313441       -1.22673890790099       -3.45759144606183
C           -2.42643698084715       -1.20144793713895       -3.41388151765467
C           -1.77562856052782       -0.80652961162903       -2.26678745078311
C           -2.49994159891419       -0.42915218636963       -1.12554480009190
C            0.29404296351183       -1.24589123919815        0.15295484794139
C            1.66460026989328       -1.24333470038687        0.15368357955344
N            4.48624674793623       -1.20314589660459        0.12713204157770
C            7.92819755646473       -2.41074202360280        0.28612465287291
C            8.62804218256086       -3.59759345732897        0.37908104899125
H            8.49942973759751       -5.73445713283695        0.46995674522272
H            6.03491387291020       -5.76605865651082        0.33782582193501
H            4.78131942420142       -3.63886257582162        0.17285060642641
H            4.75324530572404        3.58064147519235       -0.14392822173878
H            5.98939509678106        5.71705375747200       -0.32043178448779
H            8.45356046170200        5.70439891938098       -0.46208375222151
H            9.67799962645972        3.56139595222163       -0.42768278103797
H            8.42935896529171        1.43114809525350       -0.25064825626300
H            2.20858060715209        2.08936039916491       -0.19267265141390
H           -0.26654747458208        2.08405980245789       -0.19369240154146
H           -0.71906117667201        0.60995948045221        2.31472231493264
H           -1.88768591441692        1.30193030953098        4.35099599683756
H           -4.36287859301733        1.41900441724418        4.38412486538297
H           -5.63665495752933        0.81213777096301        2.36401460604295
H           -4.55397917776735       -2.70279633234996        0.94463373893172
H           -6.50963723474539       -4.13091895841961        1.44139451331716
H           -8.78921352772055       -3.27867514407863        1.13319455354290
H           -9.17329223564896       -0.97818508750106        0.31928823548639
H           -9.01811131521957        1.47840622705373       -0.55254453688020
H           -8.34758374009169        3.72197508205221       -1.33798186091720
H           -5.97623395878047        4.32115491039789       -1.53192621849106
H           -4.21423570030765        2.68898256143891       -0.94979363662632
H           -5.61701279668283       -0.84246595555176       -2.37478327404912
H           -4.32653934610079       -1.53813871762162       -4.35479211495980
H           -1.84987622004366       -1.48914281869160       -4.27981586799455
H           -0.69776792319419       -0.78164020578840       -2.24048846772231
H           -0.25441828097641       -2.17161497621249        0.25285118290277
H            2.22094038231241       -2.16240392699168        0.25393434470327
H            8.44083401934975       -1.46094694901869        0.27118148218102
H            9.70687584346418       -3.58184435674628        0.43704203876472
