80
 energy: -125.520692001172 gnorm: 0.000093682617 xtb: 6.7.1 (edcfbbe)
C            7.96619924940294       -4.78204915406308        0.25215428667110
C            6.58037577695144       -4.80145002161081        0.17974828519334
C            5.87162865320417       -3.61892140911275        0.11649048655801
C            6.54301910943141       -2.39453521705191        0.12346129032530
C            5.79897952480091       -1.14109473971026        0.05698376437192
N            6.50494599179072        0.00771472375225       -0.00273300456190
C            5.78063415416022        1.14470089200354       -0.06211799614393
C            6.50492372986725        2.41002767532771       -0.12707663713435
C            5.81467417294241        3.62382266205673       -0.12179297897140
C            6.50533567979535        4.81716911914717       -0.18283609287699
C            7.89146620794613        4.81922636933961       -0.25137634058973
C            8.58441782790919        3.61789609942812       -0.25761724430629
C            7.89921180437655        2.42057407002888       -0.19550244919842
N            4.47198691110669        1.16769136900026       -0.06577347514551
C            3.80641141448089       -0.01421704322053       -0.00265692957720
C            2.38786413740120       -0.02518998269693       -0.00198611798813
C            1.65209334440221        1.17903281381142       -0.06819210116273
C            0.28141464496854        1.16776411403170       -0.06528629911571
C           -0.41152760012119       -0.04515868546748        0.00130544358283
N           -1.83648624355809       -0.05199195680755        0.00518090998744
C           -2.50158527028415        0.16760698316028        1.19240728507435
C           -1.77665792654623        0.35621895523766        2.37897862038358
C           -2.42726158504837        0.58187078783214        3.57103873109096
C           -3.81527632771881        0.62281999326177        3.61373621680935
C           -4.53884833059631        0.42798184816498        2.45208494699634
C           -3.90426352385620        0.19786308178680        1.23985124350634
C           -4.73866611278802       -0.00935336550677        0.00560997194023
C           -5.75893349536218       -1.11621083312336        0.22497177600130
C           -5.52225463832436       -2.44848015062612        0.48047339042511
C           -6.61287355530235       -3.29232682121586        0.65021339980485
C           -7.90807145242494       -2.80420668070038        0.56493786188512
C           -8.14852399690926       -1.46378946841578        0.30571860252774
C           -7.06552621374216       -0.61673256503784        0.13479446734937
C           -6.99856818609589        0.81034364792155       -0.14441496336555
C           -7.99762219597003        1.75322226525818       -0.32444848988094
C           -7.63304876200318        3.06531585867105       -0.58345639062723
C           -6.29789780061662        3.43205888019930       -0.66003879846281
C           -5.29092783496825        2.49177709216230       -0.48072389082932
C           -5.65113149447041        1.18762290470945       -0.22458752032559
C           -3.91156054250222       -0.28262553236072       -1.22051031924587
C           -4.55368781519235       -0.52898190158456       -2.42554688620395
C           -3.83717246369084       -0.76802114020410       -3.58331678886091
C           -2.44852889470225       -0.75256198001193       -3.54475207324166
C           -1.79046630145109       -0.51023459871880       -2.36004941830534
C           -2.50837032445957       -0.28043972033692       -1.17649892130151
C            0.29872074007005       -1.24827356842880        0.06612788043323
C            1.66950206531699       -1.23990172916783        0.06548940669682
N            4.49084550147728       -1.18480407233077        0.06043244537715
C            7.93718520064134       -2.38348305812108        0.19556364444843
C            8.64050003085783       -3.57013285284384        0.25994744900532
H            8.51834318228816       -5.70894757897342        0.30162594199672
H            6.05357701779436       -5.74475637247207        0.17288075401640
H            4.79366933496207       -3.61799401525893        0.05950023794337
H            4.73670050492526        3.60650907677158       -0.06777214049242
H            5.96407720319577        5.75226685010146       -0.17732600403966
H            8.42937990196954        5.75454281615249       -0.29898184314417
H            9.66359758878915        3.61692468345565       -0.31117884292872
H            8.42366647322918        1.47715028943564       -0.20051007171122
H            2.19918708874887        2.10745368104662       -0.12264995510920
H           -0.27629838673499        2.09185517212838       -0.11679450301764
H           -0.69902154600753        0.32043770168543        2.34940626469300
H           -1.85122471580827        0.72532449610972        4.47251374410733
H           -4.32682326359136        0.80126661774246        4.54672073386003
H           -5.61806408148916        0.45275601936544        2.47756925022217
H           -4.51422652038008       -2.83129134041606        0.54760984434236
H           -6.44875703101043       -4.34065472759315        0.85185164611897
H           -8.74050706948344       -3.47911633145873        0.70155781544303
H           -9.15895297141402       -1.08916400153610        0.23911052896000
H           -9.03869105544324        1.47315214995605       -0.26561302822536
H           -8.39912205728963        3.81346531119598       -0.72677311564816
H           -6.03640808753473        4.46034810828800       -0.86215203190966
H           -4.25157528749525        2.78026704557600       -0.54154892024505
H           -5.63325646016755       -0.53162148565902       -2.44836031010163
H           -4.35462965628662       -0.95996890851190       -4.51033162757441
H           -1.87781146712021       -0.92940264335666       -4.44367066975832
H           -0.71227974635941       -0.49439497114233       -2.33394195994847
H           -0.24579860165325       -2.18011276783760        0.11971187302601
H            2.22979607692638       -2.16050701601369        0.11882908884345
H            8.44709335166000       -1.43211138444787        0.20169398926309
H            9.71938258519986       -3.55266537443615        0.31652176739744
