  138
       -216.41695006
 O        -10.6385837412       -0.3379488467        0.2476183697
 P         -9.2710995330        0.0757582301       -0.0926169530
 C         -9.1274722446        0.6724919368       -1.8069159620
 C         -7.9095753857        0.8726972589       -2.4419860316
 C         -7.8859499970        1.2915793702       -3.7596475126
 C         -9.0713742250        1.5189264399       -4.4405984653
 C        -10.2875317976        1.3200732505       -3.8070971682
 C        -10.3149035062        0.8904002740       -2.4927780199
 C         -8.6893144912        1.4171202538        0.9926813087
 C         -9.1480079403        2.6999806830        0.7297593130
 C         -8.8287449843        3.7375500656        1.5869248204
 C         -8.0671008360        3.4864722188        2.7171697719
 C         -7.6381264361        2.1994809588        2.9968863424
 C         -7.9482558013        1.1619521040        2.1355454760
 C         -8.0750520193       -1.2873349486        0.0350816227
 C         -8.6165852158       -2.5696160845        0.0426381786
 C         -7.8200181894       -3.7067776303        0.0730928847
 C         -6.4428148701       -3.6039881692        0.0908478350
 C         -5.8763047017       -2.3332888754        0.0916086290
 C         -6.6921442211       -1.1848672871        0.0683763478
 O         -5.9459254144       -0.0430438020        0.0893287756
 C         -4.6438574230       -0.4370134322        0.1190104469
 C         -3.5153955284        0.3686257216        0.1481126987
 P         -3.4619416507        2.1845790199        0.2363390812
 O         -2.0995139484        2.6908207240        0.0179807325
 C         -4.0810935092        2.6276391046        1.8936508202
 C         -4.4232017470        3.9529946754        2.1238176271
 C         -4.7373156494        4.3737802804        3.4025846431
 C         -4.6976023559        3.4734092507        4.4554170113
 C         -4.3477412947        2.1526466466        4.2276505048
 C         -4.0371440230        1.7280731813        2.9470273399
 C         -4.6492365768        2.8585983824       -0.9642527877
 C         -5.9802603027        3.1051478650       -0.6624342690
 C         -6.7940891418        3.6996162691       -1.6100766240
 C         -6.2880574052        4.0331841226       -2.8558739602
 C         -4.9617685028        3.7726021768       -3.1616631644
 C         -4.1408491052        3.1912004995       -2.2130111610
 C         -2.2796008882       -0.2671958957        0.1473013415
 C         -2.1422467070       -1.6576525664        0.1343588858
 C         -0.8023180065       -2.2621570689        0.1321939738
 C          0.2241243630       -1.7068315472       -0.6283866296
 C          1.4846525962       -2.2682088299       -0.6275932293
 C          1.7619214942       -3.3919513764        0.1436289479
 C          3.1371864544       -4.0213198740        0.0990668056
 C          4.2453687874       -3.0032308184        0.0336469815
 C          4.1641009615       -1.8068745868        0.7683647439
 C          5.1803072594       -0.8971638171        0.7618723762
 C          6.3778081976       -1.1053427084        0.0063781991
 C          7.4145914536       -0.1515938651       -0.0376575410
 C          7.4771304164        0.9613381909        0.8715938343
 C          8.4556489155        1.8989592755        0.8046453815
 C          9.4908659066        1.8101456207       -0.1621078658
 N         10.4814386112        2.7632284826       -0.2313140329
 C         10.2978712603        4.1331156538       -0.1265311937
 C          9.1220720530        4.8609491971       -0.0136184900
 C          9.2149047756        6.2408802206        0.0337032448
 C         10.4473187546        6.8877120994       -0.0438953479
 C         11.6198075450        6.1713393512       -0.1982362529
 C         11.5511671222        4.7862951524       -0.2504964861
 C         12.5318673509        3.7572985191       -0.4419691250
 C         13.9100495093        3.7716825541       -0.6033412509
 C         14.5761800271        2.5661332663       -0.7232709247
 C         13.8878184091        1.3555624860       -0.6596518945
 C         12.5135471017        1.3164292914       -0.5017551269
 C         11.8327770367        2.5227107273       -0.4224325628
 C          9.4685446686        0.7091176290       -1.0572834302
 C          8.4778457917       -0.2167325597       -1.0043249200
 C          6.4489350546       -2.3462983809       -0.7032681618
 C          5.4303834393       -3.2545760808       -0.6762658102
 C          3.1716159296       -5.0207730288       -1.0416904998
 C          2.9373560904       -4.8020902330       -2.3819094307
 C          3.0140913058       -5.8794191336       -3.2547362394
 C          3.3169556756       -7.1504411339       -2.7903317863
 C          3.5473203650       -7.3771398751       -1.4432711316
 C          3.4719862728       -6.3060583026       -0.5675940470
 C          3.6569056935       -6.2375086792        0.8715360544
 C          3.9743450466       -7.2205797630        1.7946773606
 C          4.0790432862       -6.8692511048        3.1302584388
 C          3.8727554634       -5.5589296111        3.5380361920
 C          3.5594524620       -4.5683070029        2.6183715043
 C          3.4452803906       -4.9142210337        1.2881649882
 C          0.7375455174       -3.9566762557        0.8915954652
 C         -0.5266731019       -3.3993636276        0.8864250294
 C         -3.2810664541       -2.4538295522        0.1272165473
 C         -4.5277790303       -1.8416069891        0.1150709860
 H         -6.9867428782        0.7094502287       -1.9087530277
 H         -6.9383769305        1.4434349105       -4.2556971340
 H         -9.0465298261        1.8477915356       -5.4693850452
 H        -11.2113098107        1.4942251357       -4.3394893246
 H        -11.2486409011        0.7094899768       -1.9794344214
 H         -9.7591376944        2.8682144663       -0.1478900130
 H         -9.1758522519        4.7395717522        1.3797185388
 H         -7.8153762036        4.2933130565        3.3892946288
 H         -7.0619731667        2.0056367366        3.8891162256
 H         -7.6243961254        0.1534011979        2.3522301558
 H         -9.6934101970       -2.6529274490        0.0319773724
 H         -8.2862006086       -4.6804876088        0.0793561765
 H         -5.8138584478       -4.4805155242        0.1070741510
 H         -4.4308077354        4.6470190711        1.2938193567
 H         -5.0020678771        5.4056495173        3.5824085134
 H         -4.9347678603        3.8031372894        5.4566542727
 H         -4.3097458136        1.4532617498        5.0507691384
 H         -3.7531149731        0.7005341023        2.7639515656
 H         -6.3704060750        2.8387026049        0.3082091031
 H         -7.8271471839        3.9060313944       -1.3747940778
 H         -6.9304518742        4.4990877940       -3.5888833040
 H         -4.5674194231        4.0331342513       -4.1332866999
 H         -3.0952268573        3.0047907232       -2.4139748851
 H         -1.4027384512        0.3630196502        0.1772510407
 H          0.0258328966       -0.8378538022       -1.2378565202
 H          2.2683857049       -1.8227422599       -1.2235162894
 H          3.2679538281       -1.5990062298        1.3357921788
 H          5.0545336833        0.0182473541        1.3171552518
 H          6.7538462717        1.0294212866        1.6676224665
 H          8.5031476122        2.6892764497        1.5394368724
 H          8.1597320075        4.3743380413        0.0155381646
 H          8.3134883556        6.8275709018        0.1244039794
 H         10.4803952522        7.9659653535        0.0001826619
 H         12.5701957963        6.6753879279       -0.2858908836
 H         14.4479404941        4.7071850785       -0.6260359239
 H         15.6481699083        2.5569227133       -0.8513393494
 H         14.4378521162        0.4293106121       -0.7275106135
 H         11.9969636399        0.3726409294       -0.4223632034
 H         10.2143294019        0.6631752824       -1.8372662744
 H          8.4598910573       -0.9934837204       -1.7511889830
 H          7.3430180634       -2.5926261359       -1.2530530299
 H          5.5317737832       -4.1850771322       -1.2165154278
 H          2.6999532136       -3.8149287462       -2.7495338944
 H          2.8351234275       -5.7249192858       -4.3086630379
 H          3.3723644675       -7.9733433640       -3.4881295162
 H          3.7806825603       -8.3683112382       -1.0837510338
 H          4.1367370061       -8.2405623877        1.4792441022
 H          4.3250559582       -7.6227963190        3.8641988427
 H          3.9572076898       -5.3064717225        4.5848366756
 H          3.4022874587       -3.5502593923        2.9420174409
 H          0.9313634992       -4.8361122328        1.4885609922
 H         -1.3040104376       -3.8393083445        1.4941663815
 H         -3.2049681650       -3.5298460679        0.1046509603
