138
 energy: -216.420276100206 gnorm: 0.000099944373 xtb: 6.7.1 (edcfbbe)
O          -10.67248110581090       -0.31953993785280        0.34508730050130
P           -9.31362960270885        0.11342187708894       -0.00500176395718
C           -9.20737662933196        0.78170692764944       -1.69536819639008
C           -8.00479463180524        1.00017540385130       -2.35304261137981
C           -8.01179309176536        1.47355085385294       -3.65234936661188
C           -9.21239614744839        1.73816824320698       -4.29182820642531
C          -10.41335872397251        1.52182800998494       -3.63550464483304
C          -10.41024745216199        1.03693126198715       -2.34027314230082
C           -8.71166787027487        1.40771387841103        1.12564140735033
C           -9.18946101935894        2.69640969491601        0.93476007616550
C           -8.85425588947137        3.69758603007116        1.82830974172944
C           -8.05640931360171        3.40395511860025        2.92277460047719
C           -7.60810766609730        2.11013683651801        3.13128959801152
C           -7.93485643358411        1.10903377928769        2.23365051624297
C           -8.11168979401485       -1.25062027410539        0.04200424331096
C           -8.64973976038528       -2.53321687303377        0.01745776611846
C           -7.85048314053717       -3.66885917699216       -0.00718318395988
C           -6.47342583038189       -3.56251906558290       -0.01343634942619
C           -5.91020900875793       -2.29160720577153        0.01817860031087
C           -6.72837585103439       -1.14517695143022        0.04941060607880
O           -5.98457388752188       -0.00275133380366        0.09266960480229
C           -4.68130998888095       -0.39373588116394        0.08354182789781
C           -3.55414888724743        0.41383519373202        0.11620566344704
P           -3.50600423195418        2.22650851057065        0.26759392550558
O           -2.15268691058622        2.74724655817645        0.02914716704626
C           -4.08036313988061        2.60216778617792        1.95739457656834
C           -4.41291770130846        3.91815021155837        2.24802137971519
C           -4.69541729325635        4.28867326479899        3.54949405625410
C           -4.63308857338284        3.34720283410401        4.56474031601426
C           -4.29272451717973        2.03581974885730        4.27647868045739
C           -4.01416744943929        1.66141622595872        2.97297162755447
C           -4.73083368972131        2.93759164852403       -0.87260833548378
C           -6.05253556696085        3.16990276275977       -0.52234884584747
C           -6.89538990312268        3.79569256981132       -1.42333570139045
C           -6.42741570452118        4.17506307793086       -2.67089965939954
C           -5.11047611597013        3.92915217009932       -3.02534630019676
C           -4.26053412557412        3.31619939302498       -2.12317736667380
C           -2.31761250944011       -0.21757065143902        0.07465151142881
C           -2.17699828972275       -1.60689871901832        0.01924964354186
C           -0.83687356808706       -2.21035872259343       -0.01215214989469
C            0.18457609218770       -1.63786406141690       -0.76649542853160
C            1.44427778859138       -2.20136123625302       -0.78919881019086
C            1.72573595716655       -3.34409494845366       -0.04802082076732
C            3.09836501731336       -3.97661771932779       -0.11647129230045
C            4.21320990161242       -2.96399694181769       -0.15996039350883
C            4.14081044103862       -1.77999607797262        0.59785701624139
C            5.16863026886003       -0.88598803364906        0.62257486314283
C            6.37977714446791       -1.09684728172475       -0.11791188973909
C            7.43511853781414       -0.17029155467532       -0.11522923601946
C            7.47267547716461        0.96008596670199        0.78149145953504
C            8.48227070294164        1.86418633857120        0.76890523513205
C            9.58028968569269        1.72598331965483       -0.12098685959149
N           10.61299537337888        2.63964401254406       -0.12478360811733
C           10.48058430706230        4.01694295218849       -0.05905682964465
C            9.33121181251905        4.79506290821903       -0.05246737547116
C            9.47971299426604        6.16961028486297       -0.01854448539374
C           10.74028243482273        6.76373355153394       -0.00587823445880
C           11.88929943242348        5.99624215998697       -0.05310145331949
C           11.76494102428777        4.61523501785897       -0.08881918805422
C           12.71419976231286        3.54152324489230       -0.17828569442706
C           14.09977695810606        3.49590474158259       -0.22224640567681
C           14.72090596450836        2.26147975704243       -0.26565771048115
C           13.97731488352678        1.08303223962954       -0.24118755807366
C           12.59515778228191        1.10389201280420       -0.19931908501403
C           11.96328068859168        2.33971672056675       -0.19662976877845
C            9.58064741347334        0.61612810410968       -1.00694303296769
C            8.56003157209367       -0.27561115427319       -1.01338157650636
C            6.43611368308536       -2.32581802986621       -0.85736712932689
C            5.40332708919837       -3.21576199508411       -0.86413942529116
C            3.12261789697171       -4.94547238974454       -1.28370169613904
C            2.88458345608819       -4.69004405569643       -2.61677098252276
C            2.95307837560006       -5.74400181425469       -3.51832176535647
C            3.25146765719539       -7.02835047044881       -3.08922040425622
C            3.48586050844672       -7.29184974428595       -1.74949519284520
C            3.41883602081733       -6.24428685504108       -0.84539780699076
C            3.61045938231985       -6.21511793837697        0.59453243922508
C            3.92913941006331       -7.22344396420061        1.48938861147981
C            4.04296389253419       -6.90772487073116        2.83324853464037
C            3.84462992361273       -5.60795449940279        3.27640443904195
C            3.52982975393440       -4.59224685163886        2.38490686098340
C            3.40686943875872       -4.90272898415619        1.04682435858422
C            0.70585518575256       -3.92510769722968        0.69385343962947
C           -0.55717382276795       -3.36594081794943        0.71212971236589
C           -3.31439558690165       -2.40515015688518        0.00474766057067
C           -4.56181905430711       -1.79681271293913        0.03185567840450
H           -7.06966761713982        0.80874708362567       -1.85171869763613
H           -7.07615010963538        1.63847996484212       -4.16642326368257
H           -9.21141591670474        2.10966241433629       -5.30628886497126
H          -11.34908334607085        1.72533483158042       -4.13554678730424
H          -11.33205330074418        0.84157107586925       -1.81082717488033
H           -9.82824742318849        2.89745478117884        0.08416508760913
H           -9.21694301477780        4.70406753426802        1.67732261476077
H           -7.79166957751562        4.18234710150475        3.62288241069041
H           -7.00369822255435        1.88225941488166        3.99631156926886
H           -7.59599601254021        0.09531322425829        2.39603050976596
H           -9.72641775641285       -2.61927794897847        0.02662471188289
H           -8.31437348558219       -4.64345484807689       -0.02443922681120
H           -5.84241463770413       -4.43736976544028       -0.03908592764145
H           -4.43829978060042        4.64444138063259        1.44638386764147
H           -4.95284201584835        5.31311518998568        3.77619909295623
H           -4.84523695911654        3.63735548725260        5.58364839655922
H           -4.23718308602688        1.30423585727815        5.07010038425674
H           -3.73765902121865        0.64120556285416        2.74338309870383
H           -6.41281379630265        2.86873594418079        0.44972396707208
H           -7.92115073769632        3.99111330982147       -1.14969864373565
H           -7.09215544064934        4.66518556926722       -3.36726714465970
H           -4.74602453342836        4.22514870666661       -3.99847589788321
H           -3.22127875766731        3.13955378354177       -2.36235466355884
H           -1.44173268633631        0.41401053782968        0.10799728060051
H           -0.01675215287735       -0.75355623780081       -1.35256530412233
H            2.22424536894854       -1.74220562668707       -1.37959884321806
H            3.24167483007476       -1.57208784830610        1.16076454838290
H            5.04877793773499        0.01613670403833        1.20005429582944
H            6.69672487340362        1.06889296647461        1.52095112338403
H            8.50229282002834        2.66780967474927        1.49051624774605
H            8.35005214257232        4.34837741014547       -0.09259372709584
H            8.59995291286647        6.79513684107386       -0.00965201895787
H           10.81607566472887        7.84027361377133        0.02493834191316
H           12.86466972199092        6.45828337654455       -0.07003277904179
H           14.67758786905511        4.40759521337966       -0.21445409122274
H           15.79844767460123        2.20490675564271       -0.30259234545048
H           14.49072263433786        0.13336686113698       -0.24698818912273
H           12.03193114315563        0.18502987932307       -0.15002773105542
H           10.37836298755447        0.53566281534093       -1.73095919609355
H            8.57001471452666       -1.06114479779312       -1.75078403918660
H            7.32961300173483       -2.57443018929266       -1.40655760606345
H            5.49551932535778       -4.13446627114207       -1.42604926480031
H            2.65110054303125       -3.69226047344051       -2.95721040910654
H            2.77137191424660       -5.56039459285415       -4.56712574982973
H            3.30021431881774       -7.83261627068276       -3.80892899162848
H            3.71613152625309       -8.29330256188735       -1.41740045005404
H            4.08580534121980       -8.23543000480166        1.14642725411324
H            4.28996180489802       -7.68132696328485        3.54569985822066
H            3.93684978715293       -5.38330228228158        4.32889873825813
H            3.37911075014764       -3.58214798669886        2.73554266203486
H            0.90237883297712       -4.81908712140048        1.26777162786122
H           -1.33017070061386       -3.81918050302988        1.31565531881668
H           -3.23613378054743       -3.47982687871979       -0.05111345998631
