138
 energy: -216.519103715390 gnorm: 0.000056983241 xtb: 6.7.1 (edcfbbe)
O          -10.93037897337941       -0.52672547934395        0.58038097584677
P           -9.59296154887241       -0.10379733574390        0.14676563488714
C           -9.53858939334693        0.34692987678974       -1.61629664842570
C           -8.35733232940980        0.48721311007463       -2.33132292630583
C           -8.40583392650919        0.79472617403673       -3.67879321305144
C           -9.62649898439466        0.97288341457616       -4.31001257132128
C          -10.80621565652733        0.83541316068160       -3.59637024984842
C          -10.76172478079764        0.51516667487926       -2.25164193696182
C           -9.00212860869554        1.33391200544235        1.09471289847588
C           -9.50942503928284        2.57924301099032        0.75225182183209
C           -9.17998182458921        3.69102255942609        1.50633051385361
C           -8.35854245439308        3.55232112798655        2.61382915876660
C           -7.88049479804582        2.30352882292717        2.97504628255005
C           -8.20139270289237        1.19142947555480        2.21683168957941
C           -8.35094209413139       -1.42135981512245        0.33470957287906
C           -8.85195882834092       -2.70908340771264        0.47720447368340
C           -8.02198096958605       -3.81884987064551        0.57684457719205
C           -6.64875695260769       -3.67738836905942        0.53246758294233
C           -6.12216823778616       -2.39938874987961        0.39828433869378
C           -6.97070052511057       -1.27916275126549        0.30378565553250
O           -6.25942464574626       -0.12157032951921        0.19230638216729
C           -4.94609122178465       -0.47601661118982        0.20750905469544
C           -3.84093248897219        0.35811296509611        0.11807221925889
P           -3.83839286581611        2.17738188411408        0.02246275895985
O           -2.50231136917132        2.68878847272825       -0.31189217298978
C           -4.39620781752727        2.76689314708993        1.65496414352736
C           -4.76867431554823        4.09957706535391        1.76510181719194
C           -5.04190491828367        4.64041119064087        3.00756532998407
C           -4.93058875752266        3.85342335496097        4.14301472410586
C           -4.55026898495859        2.52595296221570        4.03421320024025
C           -4.28063570734871        1.98069728543380        2.79043877180712
C           -5.09999579525779        2.69195312519822       -1.18093048646868
C           -6.42485441223673        2.92173973164969       -0.84087463024993
C           -7.30067979476400        3.39750351060442       -1.80008880880435
C           -6.86182111772077        3.62948655691757       -3.09360899956633
C           -5.54133517712923        3.38573484469511       -3.43576164336706
C           -4.65856063528575        2.92330152769473       -2.47701227407523
C           -2.58999912056908       -0.24098782665994        0.13306426483809
C           -2.40941640175358       -1.62285625421195        0.24477501429268
C           -1.05450168576049       -2.19257493871035        0.25388602682526
C           -0.05974783351706       -1.67634614872309       -0.57343235162885
C            1.21172508296897       -2.21298927535937       -0.56625584634842
C            1.53267152593429       -3.27325151276625        0.27491634399925
C            2.91443030536277       -3.89032249032266        0.22986008496491
C            4.01061064965098       -2.85657262998876        0.07186956628431
C            3.92589710910055       -1.63821796496863        0.73682300927483
C            4.94848357799984       -0.71501709334689        0.65078627473897
C            6.09508781497306       -0.98749420132577       -0.09170957930421
C            7.18677081624232       -0.00825348775760       -0.17645473168756
C            6.91690873255839        1.35146226768088       -0.31923956418546
C            7.94067151051824        2.27414959246156       -0.39240018762198
C            9.26633686292382        1.85429463591675       -0.32765611280213
N           10.30926515027457        2.78728872821398       -0.40116090870775
C           10.45444511554912        3.76299864614466       -1.36708984923285
C            9.67195495660827        4.02630269925810       -2.48238583534651
C           10.06135590936929        5.05836744889346       -3.31426257385574
C           11.20526904993384        5.81030527994745       -3.05510832462656
C           12.00058667496543        5.53784598220205       -1.96027561994791
C           11.63003599827221        4.50509250071842       -1.10910235447137
C           12.21356383138002        3.94536390173105        0.07749615718054
C           13.34526038510006        4.25170802232136        0.82166018782721
C           13.61370068289243        3.50887390660689        1.95373339228848
C           12.76214635322108        2.48174076555221        2.35491489291241
C           11.63049580944200        2.15806006717641        1.63143647516987
C           11.36826533985541        2.88542440721184        0.47914840849040
C            9.54636358612983        0.49775558885594       -0.18825281980548
C            8.51705536968026       -0.41826893321419       -0.11195688634740
C            6.18170870196969       -2.21395354560982       -0.74507868434016
C            5.15541522787908       -3.13499682940793       -0.66338284564930
C            2.91489159165532       -4.94485812826190       -0.86104577743218
C            2.65758536422969       -4.79159022194747       -2.20645429290821
C            2.70221700133353       -5.91249284734539       -3.02459246434638
C            2.99434540232494       -7.16297949895463       -2.50175935463942
C            3.24710573345193       -7.32412345707743       -1.14912990554351
C            3.20480447791114       -6.20904235193981       -0.32860894570390
C            3.42314862456491       -6.07054965387489        1.10206959041632
C            3.75036423896154       -7.01019656660002        2.06566797798600
C            3.90267571952826       -6.59056674525464        3.37722067242517
C            3.73415035580597       -5.25756511508979        3.71975620474514
C            3.40718742378159       -4.31145474632655        2.75770315250729
C            3.24749497843475       -4.72457995526936        1.45239473244342
C            0.54015159671567       -3.79654591108224        1.09312701921035
C           -0.73396796546480       -3.26265505631509        1.08462255057973
C           -3.52506220023693       -2.44513577773865        0.34864044421029
C           -4.78655863825129       -1.87063314557949        0.32657058308513
H           -7.40618259082363        0.36418611017829       -1.83870414914403
H           -7.48686280014419        0.89786621500083       -4.23708594270807
H           -9.65789073974599        1.21485493920693       -5.36237183892525
H          -11.75758582884394        0.97151938373727       -4.08955497850035
H          -11.66634605870590        0.38252188883361       -1.67518861401996
H          -10.16631705177198        2.65997666998296       -0.10440054600107
H           -9.56551341925486        4.66354340492821        1.23669708272541
H           -8.09858072205652        4.41740554359459        3.20541994995144
H           -7.25770097352092        2.19763690971685        3.85049250169315
H           -7.83992848708352        0.21248778753241        2.49958204061545
H           -9.92566098257732       -2.82158078108445        0.51682112828003
H           -8.45848040576371       -4.79980784917662        0.68717055584124
H           -5.99385605285674       -4.53209769528480        0.60244523716549
H           -4.83225193391803        4.70466445441591        0.87035167059075
H           -5.33002085519463        5.67798354307428        3.09384967106221
H           -5.13524552476959        4.27723340443254        5.11548710313428
H           -4.45594916530064        1.91577474700458        4.92124416031668
H           -3.97282387714847        0.94762702841368        2.70015376552349
H           -6.76161006323833        2.73605754002240        0.16787607121113
H           -8.32927433500708        3.59178892545369       -1.53662939330431
H           -7.55227706472479        4.00343465971378       -3.83545444858120
H           -5.19968496144648        3.56726351674109       -4.44450559292576
H           -3.61648020694599        2.75397369496459       -2.70882831766775
H           -1.73205913547250        0.41285786012742        0.07100224396979
H           -0.29119254505801       -0.85988161308456       -1.24103265833732
H            1.96875462425087       -1.79588805594706       -1.21441556200788
H            3.04707170252658       -1.40566691259567        1.32089837294828
H            4.86805594853266        0.22035185631635        1.18520138607840
H            5.89260807731080        1.68744440483463       -0.38497382764389
H            7.72014180004520        3.32701496509399       -0.48712795391738
H            8.79358478001245        3.43809004643694       -2.70170288456336
H            9.46721743947041        5.28493775508465       -4.18741493459587
H           11.47417730100992        6.61070331827938       -3.72837203072286
H           12.89570833592945        6.10993830320604       -1.76760780353837
H           13.99609675402151        5.05828398194024        0.51918260677244
H           14.48987772993915        3.72910895300315        2.54539322629927
H           12.98971963409065        1.92810619650245        3.25407811997246
H           10.96736912769683        1.37218837439550        1.96065854375671
H           10.57400434833187        0.16786356731642       -0.15194666582912
H            8.74569404975489       -1.46648830971935        0.01260114531863
H            7.05423845626096       -2.44161849848934       -1.33988852055381
H            5.24520162818178       -4.07972048014379       -1.17958102065958
H            2.42914876248577       -3.82092625074144       -2.62066489420973
H            2.50695141152425       -5.80827704675088       -4.08180798433167
H            3.02393784478245       -8.02101784017207       -3.15745565759961
H            3.47240883480401       -8.29932850711842       -0.74375330863780
H            3.88527493435988       -8.04837065713554        1.80088612347317
H            4.15768385476159       -7.30912052585450        4.14252381916352
H            3.85958064116777       -4.95060485908067        4.74773277332313
H            3.27872486417429       -3.27453883720571        3.03055188497723
H            0.76560799540765       -4.62594764044763        1.74738077987784
H           -1.48338275535356       -3.66873707043089        1.74839295486998
H           -3.41834648432005       -3.51642896648922        0.42055738223045
