  138
       -216.51892820
 O        -10.6385524088       -0.3340506203        0.5184587486
 P         -9.2915438638        0.0933573643        0.1201312367
 C         -9.2376568890        0.7396806808       -1.5810878553
 C         -8.0631137864        0.8936822322       -2.3034800992
 C         -8.1157886014        1.3587146237       -3.6048307403
 C         -9.3330554237        1.6808352324       -4.1812715813
 C        -10.5060541490        1.5300564972       -3.4598911270
 C        -10.4583243107        1.0518225309       -2.1632100857
 C         -8.6486149150        1.3972376659        1.2169247032
 C         -9.1155409704        2.6889223587        1.0194057004
 C         -8.7440604550        3.6988538103        1.8883057990
 C         -7.9204028693        3.4116563835        2.9650790491
 C         -7.4818670560        2.1157104966        3.1808071212
 C         -7.8458208387        1.1054139386        2.3082611472
 C         -8.0895662599       -1.2731847556        0.1525124450
 C         -8.6264424891       -2.5541530990        0.1659163560
 C         -7.8273071139       -3.6906850235        0.1528163022
 C         -6.4504798973       -3.5837030791        0.1248602823
 C         -5.8881826225       -2.3138507516        0.1180489120
 C         -6.7059054743       -1.1671362994        0.1326230139
 O         -5.9637264099       -0.0238777532        0.1329075788
 C         -4.6605081541       -0.4133420557        0.1153283846
 C         -3.5336174683        0.3959109847        0.1064276871
 P         -3.4783110525        2.2157075145        0.1772173250
 O         -2.1285481746        2.7153701448       -0.1179124673
 C         -4.0098236430        2.6684861173        1.8613550196
 C         -4.3576416062        3.9917337390        2.0951421298
 C         -4.6069791435        4.4230874361        3.3845604495
 C         -4.4957079174        3.5358305314        4.4434907853
 C         -4.1392907838        2.2176717375        4.2114026905
 C         -3.8942571625        1.7818823011        2.9202793873
 C         -4.7289734398        2.8800177100       -0.9622367991
 C         -6.0491471003        3.0963477679       -0.5958328744
 C         -6.9154910544        3.6922772350       -1.4943555355
 C         -6.4718672040        4.0584433678       -2.7548789276
 C         -5.1564058719        3.8289247216       -3.1247312600
 C         -4.2828746952        3.2455300539       -2.2252551910
 C         -2.2991616609       -0.2354949197        0.0709479645
 C         -2.1552086115       -1.6260447212        0.0565612570
 C         -0.8135634122       -2.2259395092        0.0270099801
 C          0.2011984584       -1.6602655403       -0.7416289378
 C          1.4630581050       -2.2185108044       -0.7639809301
 C          1.7544625287       -3.3508068225       -0.0105544786
 C          3.1275675811       -3.9849859752       -0.0886829909
 C          4.2389277215       -2.9579855080       -0.1567174581
 C          4.1680342561       -1.7985544195        0.6079980084
 C          5.1990508136       -0.8809096772        0.5955287776
 C          6.3401757676       -1.0999279640       -0.1729477849
 C          7.4372976462       -0.1230512374       -0.1844051597
 C          7.1733984555        1.2451192298       -0.2113609123
 C          8.2010058542        2.1663779785       -0.2139939401
 C          9.5250866678        1.7370372097       -0.1938160292
 N         10.5719701115        2.6684691494       -0.1918566404
 C         10.7145543794        3.7279995443       -1.0654802118
 C          9.9266868203        4.0942378132       -2.1476211845
 C         10.3137231929        5.1979082660       -2.8830479460
 C         11.4610109219        5.9205955188       -2.5624206116
 C         12.2621474738        5.5465742646       -1.5022251214
 C         11.8936544023        4.4407421060       -0.7474535943
 C         12.4823437707        3.7735217610        0.3795487462
 C         13.6193896072        4.0076353445        1.1414389143
 C         13.8923017098        3.1637358972        2.1991606867
 C         13.0395831251        2.1068778764        2.5104876316
 C         11.9026942860        1.8536373871        1.7674872613
 C         11.6362530696        2.6833450559        0.6876281035
 C          9.7992359280        0.3722785340       -0.1729151097
 C          8.7660548966       -0.5426224666       -0.1660197178
 C          6.4139695245       -2.2694795040       -0.9248227058
 C          5.3798015772       -3.1855435969       -0.9150981024
 C          3.1196877030       -4.9507790704       -1.2587728975
 C          2.8830078625       -4.6867212623       -2.5907226922
 C          2.9096139867       -5.7413859701       -3.4932384375
 C          3.1635368241       -7.0359020414       -3.0663475928
 C          3.3961709826       -7.3080485647       -1.7279813388
 C          3.3719239396       -6.2593459755       -0.8235505286
 C          3.5762075048       -6.2377829458        0.6156715272
 C          3.8679920878       -7.2577484019        1.5062469402
 C          4.0157841431       -6.9453450892        2.8479145370
 C          3.8773678511       -5.6388747294        3.2914886372
 C          3.5853260548       -4.6126718249        2.4029975151
 C          3.4303223005       -4.9187618361        1.0679514923
 C          0.7411228714       -3.9247921313        0.7458167310
 C         -0.5238086027       -3.3695488118        0.7659616303
 C         -3.2924486446       -2.4246089257        0.0763960857
 C         -4.5384485592       -1.8169027250        0.1014878073
 H         -7.1133559301        0.6581814403       -1.8522027134
 H         -7.2026533784        1.4711352776       -4.1701198564
 H         -9.3675431791        2.0456106806       -5.1974229231
 H        -11.4554500801        1.7775166611       -3.9110589140
 H        -11.3593211351        0.9052554446       -1.5846637250
 H         -9.7749433289        2.8859655421        0.1839169353
 H         -9.0985283311        4.7072429699        1.7316245030
 H         -7.6277698436        4.1968511940        3.6459049202
 H         -6.8562539483        1.8933368095        4.0320870669
 H         -7.5150490651        0.0900987315        2.4774162247
 H         -9.7028762361       -2.6403351878        0.1962002565
 H         -8.2908409117       -4.6653596673        0.1637943358
 H         -5.8199246558       -4.4592435745        0.1112531186
 H         -4.4226529134        4.6755146650        1.2591048507
 H         -4.8753671204        5.4534374184        3.5671437064
 H         -4.6815500585        3.8740349975        5.4525914491
 H         -4.0461320001        1.5286625248        5.0387825412
 H         -3.6051721796        0.7563187689        2.7334753203
 H         -6.3893790303        2.8054175138        0.3865430825
 H         -7.9401075104        3.8763558209       -1.2088981518
 H         -7.1546541646        4.5264861340       -3.4488450540
 H         -4.8113667274        4.1140900914       -4.1079577929
 H         -3.2442625781        3.0828711279       -2.4764868056
 H         -1.4238226822        0.3978531097        0.0722226332
 H         -0.0068045827       -0.7861636006       -1.3404204635
 H          2.2356328533       -1.7624521073       -1.3658712436
 H          3.2928934599       -1.6071570469        1.2122715738
 H          5.1290668713        0.0072791976        1.2064504594
 H          6.1503898707        1.5900084064       -0.2416762883
 H          7.9846969465        3.2243500285       -0.2179355641
 H          9.0447358117        3.5313795479       -2.4144293659
 H          9.7154584656        5.5046801480       -3.7285696857
 H         11.7275842720        6.7796065794       -3.1600929588
 H         13.1599481728        6.0965688146       -1.2629772471
 H         14.2712947914        4.8363659809        0.9094062481
 H         14.7723570825        3.3269685732        2.8031828886
 H         13.2701710983        1.4732128284        3.3542889464
 H         11.2387258823        1.0432531022        2.0284257771
 H         10.8254513160        0.0359637326       -0.1722293510
 H          8.9907208949       -1.5984717286       -0.1299394284
 H          7.2827665063       -2.4553342486       -1.5393335980
 H          5.4594492765       -4.0849788260       -1.5081908219
 H          2.6828866484       -3.6813316725       -2.9298541043
 H          2.7299627962       -5.5503304350       -4.5410414364
 H          3.1793836427       -7.8408833739       -3.7865368069
 H          3.5913909357       -8.3174375881       -1.3974992385
 H          3.9808085473       -8.2752245942        1.1624256904
 H          4.2444407132       -7.7274402144        3.5572068206
 H          3.9982121754       -5.4160567246        4.3414629633
 H          3.4783537244       -3.5974887938        2.7552427013
 H          0.9433359650       -4.8103797914        1.3303681513
 H         -1.2895080385       -3.8166629165        1.3832116705
 H         -3.2139272080       -3.5004196826        0.0489965724
