90
 energy: -140.436746434970 gnorm: 0.000030979889 xtb: 6.7.1 (edcfbbe)
C           -6.74820489541083       -4.67052401316131        0.23327136531791
C           -6.06293710332246       -3.71956271717770        0.97185350352782
C           -6.43529124416422       -2.38912917421030        0.91436846711340
C           -7.50175269406281       -1.99586648589311        0.10743098571109
C           -7.93990517017499       -0.60900855029914        0.03116261327096
N           -9.19706839260039       -0.26182779983238       -0.05715284325827
C           -9.21510096643374        1.10636927954843       -0.05347948723759
C          -10.28366251831557        1.99341719761013       -0.13386380476800
C           -9.99759054875290        3.34248701515770       -0.12829437294189
C           -8.68459648876180        3.81318162982225       -0.05443226568073
C           -7.60936514505005        2.95073524716143        0.02874637484184
C           -7.89014571041950        1.59377332015285        0.04284354030217
N           -7.08796377405785        0.47473873623999        0.09546461725115
C           -5.68380388289298        0.47138429396866        0.07865513150389
C           -4.97019637243175        1.21999404361300        1.01210785163200
C           -3.59214610616343        1.22798501625985        0.98414916673385
C           -2.88175414376249        0.48039145453739        0.03573122233425
C           -1.42555576319896        0.47662359651188        0.02178480304831
C           -0.70889199190165        1.71321047155795       -0.01713336660602
C           -1.36406914741752        2.94185898531374       -0.14588393539061
C           -0.67101538716704        4.14875582890836       -0.08434765779794
C            0.69306611826654        4.14495354390412        0.11510588520643
C            1.37932550792035        2.93415517473156        0.17622511205227
C            0.71715480446666        1.70927115250774        0.04764251485655
C            1.42743421672190        0.46896254051885        0.00805357248642
C            2.88355887020613        0.46656074138207       -0.01385719437943
C            3.59026193817178        1.20988004745267       -0.96843801626334
C            4.96797183391308        1.19583349695554       -1.00665646188703
C            5.68499556926297        0.44497652288690       -0.07764726605503
N            7.08899105784246        0.44070471236218       -0.10533792977410
C            7.93501646351880       -0.64804574840265       -0.04866787606537
C            7.48807844381904       -2.03205493665687       -0.12530798725939
C            8.18868250329212       -3.00416967266726        0.58812208795663
C            7.80136256364573       -4.32918812108608        0.52642606502702
C            6.71812182434201       -4.70191281196350       -0.25384163540992
C            6.03304211561385       -3.74473602509463       -0.98452812766795
C            6.41347074624843       -2.41665099687457       -0.92559844123123
N            9.19474515703941       -0.30832954243530        0.03195459532677
C            9.22065286281630        1.05974437356027        0.03068976589707
C           10.29481748476710        1.94047341557183        0.10570014925657
C           10.01645098276370        3.29116915734301        0.10431836425302
C            8.70575070974336        3.76954466359344        0.03960536795198
C            7.62502948164689        2.91347557202320       -0.03803550200585
C            7.89793874420124        1.55496776971664       -0.05606171787240
C            4.99926419733148       -0.28600056225608        0.89110557013015
C            3.62226871659561       -0.28137779323707        0.91355990783544
C            0.71060602640145       -0.76811963335369       -0.01961065996051
C            1.36520776558921       -1.99730437636524       -0.14585406765783
C            0.67280591238738       -3.20419454659914       -0.07910607809144
C           -0.69098159729929       -3.20006643757743        0.12190605817332
C           -1.37660775734446       -1.98907970193906        0.18440143162833
C           -0.71507936009320       -0.76407665047537        0.05403603120389
C           -3.61701934588110       -0.26650870876053       -0.89533709906469
C           -4.99409739085618       -0.26480237258502       -0.88338108977812
C           -8.20290427625450       -2.96176162870358       -0.61386014782222
C           -7.82374636951335       -4.28919381406276       -0.55344895314815
H           -6.45083869389969       -5.70775117436911        0.27835723436602
H           -5.23730804044638       -4.01571248193568        1.60228692940226
H           -5.90977402625884       -1.65907011743474        1.51235566309283
H          -11.29531553583170        1.62544015403190       -0.20302169575511
H          -10.80537059256054        4.05711832433288       -0.18929047250301
H           -8.50731545949256        4.87853675380410       -0.06424423258787
H           -6.59549235404277        3.31919828659460        0.07524015734060
H           -5.50418966124382        1.77463727648678        1.76986880426995
H           -3.04768444140662        1.78577171217965        1.73159205484758
H           -2.43132164472008        2.96055387031081       -0.30366584690543
H           -1.21085725435512        5.07938360955010       -0.17751778271723
H            1.23811377384567        5.07252998497906        0.20836952897686
H            2.44677176204302        2.94672159733966        0.33341235346667
H            3.04251653276927        1.76921706479267       -1.71233692271158
H            5.49876429515521        1.74731739819487       -1.76895765113268
H            9.03341043028223       -2.69830845161973        1.18626878375906
H            8.34620437427242       -5.07390472043740        1.08768635098440
H            6.41456631947677       -5.73729258022529       -0.30010191075805
H            5.20124321351728       -4.03414986412838       -1.60996803436433
H            5.88782325824985       -1.68174406775782       -1.51750072477704
H           11.30477020533109        1.56658287523693        0.16765639381933
H           10.82864647085586        4.00110560218033        0.16133295004695
H            8.53473127041923        4.83589140995871        0.05222207141190
H            6.61298396526753        3.28774976426355       -0.07756352538626
H            5.55667410205372       -0.85079480473539        1.62400160792664
H            3.10113185605757       -0.82892706418125        1.68445914553048
H            2.43209585075129       -2.01659970820442       -0.30285994263732
H            1.21362028296904       -4.13438002792081       -0.16981181356391
H           -1.23696676045740       -4.12691221107263        0.21574385588860
H           -2.44365141370521       -2.00179818177748        0.34107427972141
H           -3.09245020573287       -0.81849267183463       -1.66075363545265
H           -5.54835204307532       -0.82856107723508       -1.61944010414399
H           -9.04144566855537       -2.64917933037361       -1.21720403031807
H           -8.36892609748762       -5.02901315908917       -1.12081995957500
