  90
       -140.44568169
 C         -6.5751894300       -4.5110361779       -1.2122214530
 C         -5.8846232877       -3.7919563540       -0.2507448933
 C         -6.3031210377       -2.5242963232        0.1074467573
 C         -7.4200559674       -1.9583215076       -0.5049187736
 C         -7.8993352632       -0.6282583649       -0.1567371283
 N         -9.1638735306       -0.3118564633       -0.0972660689
 C         -9.2123259077        0.9934058874        0.3073195052
 C        -10.3018789926        1.8286381075        0.5297673889
 C        -10.0450716492        3.1239476228        0.9253554609
 C         -8.7410881719        3.5957692279        1.0907380154
 C         -7.6446875640        2.7846012229        0.8770101711
 C         -7.8955968253        1.4758630361        0.4980145452
 N         -7.0690311470        0.4187769103        0.1921525387
 C         -5.6683852831        0.4548207043        0.1383904125
 C         -4.9405156620        0.9095265160        1.2327630611
 C         -3.5603578790        0.9309238470        1.1797567364
 C         -2.8863249473        0.4928547701        0.0437446185
 C         -1.4097072692        0.4917046238        0.0078055220
 C         -0.7128912406        1.7078640942       -0.0082758866
 C         -1.3879707502        2.9565993847       -0.0388837914
 C         -0.7006960552        4.1308632629       -0.0312691145
 C          0.7077850877        4.1296817889        0.0136505113
 C          1.3931726653        2.9543247261        0.0195289448
 C          0.7161555801        1.7067079421       -0.0136974527
 C          1.4108308143        0.4893310553       -0.0314672964
 C          2.8875583629        0.4882130651       -0.0605812389
 C          3.5687659844        0.9295068151       -1.1910491897
 C          4.9492779577        0.9085285729       -1.2350598978
 C          5.6701720106        0.4509807506       -0.1371999416
 N          7.0711043462        0.4159991563       -0.1824639664
 C          7.9004202009       -0.6323474267        0.1648983206
 C          7.4184619409       -1.9612020964        0.5145095664
 C          8.1167620619       -2.6964815258        1.4706913945
 C          7.6877234084       -3.9601320241        1.8277478163
 C          6.5627108093       -4.5072562925        1.2320794689
 C          5.8799763077       -3.7923427730        0.2619286738
 C          6.3040599981       -2.5280732098       -0.1015346623
 N          9.1651856281       -0.3165376349        0.1078530610
 C          9.2148873209        0.9897201138       -0.2936944340
 C         10.3049806950        1.8253790578       -0.5118680180
 C         10.0489925336        3.1225536113       -0.9020394090
 C          8.7452987399        3.5957787897       -1.0663712190
 C          7.6484118910        2.7841419566       -0.8572481103
 C          7.8985873285        1.4734763487       -0.4842957394
 C          4.9982426294        0.0291204596        1.0064942225
 C          3.6185730765        0.0408221623        1.0367848811
 C          0.7141438690       -0.7274185013       -0.0301210719
 C          1.3887735193       -1.9762352591       -0.0759856699
 C          0.7012995928       -3.1502699421       -0.0555268913
 C         -0.7061169319       -3.1492609321        0.0152205341
 C         -1.3917222660       -1.9742433982        0.0413046302
 C         -0.7151666892       -0.7262930303        0.0010076564
 C         -3.6243449362        0.0492648547       -1.0504255805
 C         -5.0037746809        0.0370517351       -1.0110404697
 C         -8.1255692227       -2.6973099605       -1.4529588715
 C         -7.7020038245       -3.9642322746       -1.8048743706
 H         -6.2413464469       -5.4993490169       -1.4912106855
 H         -5.0177817778       -4.2229783353        0.2287072543
 H         -5.7730685319       -1.9840833226        0.8778301396
 H        -11.3065103309        1.4640672825        0.3897496448
 H        -10.8690281156        3.7977553762        1.1075297040
 H         -8.5878272186        4.6212870132        1.3922467237
 H         -6.6375727080        3.1562747340        0.9949472332
 H         -5.4597528056        1.2251874076        2.1254672055
 H         -2.9934702819        1.2740528455        2.0328449126
 H         -2.4671600835        2.9580306522       -0.0731847452
 H         -1.2285172588        5.0726499820       -0.0561083716
 H          1.2372198230        5.0705867300        0.0397630518
 H          2.4723425704        2.9541027325        0.0543270819
 H          3.0073761375        1.2753382265       -2.0467958571
 H          5.4743288213        1.2271325224       -2.1233407443
 H          8.9924161213       -2.2565346125        1.9215613646
 H          8.2309546509       -4.5210334652        2.5735784169
 H          6.2241069927       -5.4926149859        1.5156528240
 H          5.0144708130       -4.2237208649       -0.2194719613
 H          5.7802134652       -1.9910139632       -0.8783917407
 H         11.3094095994        1.4596066982       -0.3735317772
 H         10.8734362228        3.7969732395       -1.0800274525
 H          8.5926963401        4.6228158368       -1.3629285774
 H          6.6413947661        3.1565825288       -0.9744351254
 H          5.5628286705       -0.3128075248        1.8608998126
 H          3.0962453674       -0.2902723093        1.9222246813
 H          2.4673528108       -1.9785925706       -0.1282228276
 H          1.2283129161       -4.0923301801       -0.0899358857
 H         -1.2347120953       -4.0905646232        0.0449929809
 H         -2.4702694749       -1.9752966093        0.0935171103
 H         -3.1078100805       -0.2789804740       -1.9403089063
 H         -5.5738961606       -0.3023789744       -1.8627502421
 H         -9.0026352589       -2.2575957090       -1.9013614073
 H         -8.2510320583       -4.5281413155       -2.5442012888
