90
 energy: -140.505217759150 gnorm: 0.000038875162 xtb: 6.7.1 (edcfbbe)
C           -6.83622502519163       -4.48550584631754       -1.30189241422708
C           -6.14128609074004       -3.84166296963796       -0.29100021802048
C           -6.49151034066277       -2.55934025121634        0.08955885786556
C           -7.54546019887601       -1.90492203529550       -0.54567980328865
C           -7.95637990743342       -0.56040981659710       -0.16430968340361
N           -9.20563134602077       -0.17891336191819       -0.12024613935043
C           -9.19138152103374        1.11739824387385        0.31891635954695
C          -10.23872490570508        2.00606627471076        0.53964320344374
C           -9.92038199217539        3.27661044191226        0.97071139426849
C           -8.59616544095128        3.67134843837372        1.17523767863223
C           -7.54158453501600        2.80542945498726        0.96449484788651
C           -7.85499095923248        1.52139726580057        0.54803052002290
N           -7.07948344115292        0.42757465795676        0.23200561464183
C           -5.67337190819140        0.40632925237301        0.18907096184887
C           -4.93706860290938        0.78817229499385        1.30541976848045
C           -3.55592095390857        0.78937447472144        1.25161694337843
C           -2.88979992903817        0.40438391934857        0.09172954660461
C           -1.41114754788096        0.40394099738128        0.04124376871866
C           -0.71470027965631        1.62059602102507        0.01569471032946
C           -1.39048608854499        2.86984705234079        0.00496216241871
C           -0.70395337357714        4.04486991137076       -0.00183452375247
C            0.70570931215002        4.04447952615020        0.00572932852305
C            1.39154905587343        2.86908282301490       -0.00422997422955
C            0.71499402875226        1.62027986263595       -0.01803547694851
C            1.41079768433592        0.40337131735410       -0.04667870894491
C            2.88953853689014        0.40317105498481       -0.09576449600209
C            3.55718706462950        0.78753328537041       -1.25494338331874
C            4.93841417154173        0.78591446169192       -1.30697712896995
C            5.67320430462231        0.40452099248462       -0.18947432795176
N            7.07936103710270        0.42577275604109       -0.23045995777231
C            7.95577865271189       -0.56145455218995        0.16884866418851
C            7.54446519112754       -1.90538265519506        0.55187494719408
C            8.25317751979628       -2.56585278344141        1.55463328398075
C            7.89533765701715       -3.84570772635120        1.93362541375132
C            6.83415839201241       -4.48459315401128        1.31174741123989
C            6.14103164029141       -3.84280426594344        0.29830353999010
C            6.49176339531313       -2.56115088388592       -0.08404067668536
N            9.20503383646622       -0.17983101614019        0.12621013022436
C            9.19130787939124        1.11578220665131       -0.31503157409652
C           10.23890423347605        2.00421275253222       -0.53549295016193
C            9.92112157354419        3.27400916588287       -0.96917248746291
C            8.59718865515448        3.66825995302163       -1.17643367212541
C            7.54236924876617        2.80256773895386       -0.96594848894419
C            7.85523217687646        1.51923608047472       -0.54692141343994
C            5.01515937594361        0.02572630732907        0.97642873333969
C            3.63480535522226        0.01911511807907        1.01605888549438
C            0.71398126871198       -0.81319023363037       -0.03108794132842
C            1.38824161082209       -2.06213053473103       -0.08177859798582
C            0.70266123072936       -3.23728697600834       -0.05118222694467
C           -0.70437537061289       -3.23712808219455        0.03474114166528
C           -1.38954846087042       -2.06182113047177        0.06898963805513
C           -0.71490713627674       -0.81294688728480        0.02185514157959
C           -3.63661932833012        0.02019839846533       -1.01902700768612
C           -5.01692538862363        0.02698428279104       -0.97754568297624
C           -8.25590499689332       -2.56738993169449       -1.54589494148359
C           -7.89863011735959       -3.84794848345568       -1.92304452085723
H           -6.55608700155707       -5.48537446613424       -1.59863666917263
H           -5.32545223951214       -4.34297521389130        0.20877593729629
H           -5.95905395240784       -2.07380168503127        0.89424618806820
H          -11.25935565098116        1.70094726137369        0.36973089226748
H          -10.71120977243730        3.99015639741541        1.15055525590452
H           -8.39386794438737        4.68039044576722        1.50311206413615
H           -6.51866314207328        3.11754398804736        1.11327538333018
H           -5.45012205496703        1.07072332935856        2.21298326969368
H           -2.98454864861712        1.08309976842922        2.11998150792690
H           -2.47035727367410        2.87150178327882       -0.00053816627892
H           -1.23305895969067        4.98676877700454       -0.01001801568738
H            1.23534030077100        4.98605766590623        0.01634632928729
H            2.47142910681439        2.87001326815966        0.00095181865411
H            2.98698084649964        1.08115483086055       -2.12410495479938
H            5.45266744099637        1.06786246598513       -2.21404540564137
H            9.07988945814222       -2.05642249573616        2.02583331941827
H            8.44577733862039       -4.34668714417664        2.71626467565261
H            6.55359258317928       -5.48391643422784        1.60991523232078
H            5.32613865992935       -4.34516737780598       -0.20195005919508
H            5.96071828011291       -2.07717227068301       -0.89059984088978
H           11.25929289653922        1.69948566186290       -0.36343485910715
H           10.71215465140769        3.98734256065414       -1.14894970368433
H            8.39529914023754        4.67669217228909       -1.50642162322984
H            6.51967019705887        3.11437163928613       -1.11685913698529
H            5.58996449767105       -0.26252241986681        1.84415488504977
H            3.12538322647065       -0.27459337909924        1.92185187460159
H            2.46578526559821       -2.06199282231340       -0.14467093614304
H            1.23070371273424       -4.17893031011624       -0.08926678632910
H           -1.23279766510106       -4.17867267847972        0.06991510460121
H           -2.46706563118433       -2.06160776166112        0.13211759482981
H           -3.12848811278276       -0.27381439230195       -1.92545037434216
H           -5.59294243506317       -0.26159629692835       -1.84436217238031
H           -9.08355314297513       -2.05896210856601       -2.01653296842374
H           -8.45048481098975       -4.35055017988735       -2.70364231025215
