  95
  -149.185993724300       0.468128653495023      !
 O         -6.9630714870        2.5508558780        0.7688601612
 C         -6.3627248762        1.5429012070        0.4597899245
 C         -4.8956251063        1.4355787416        0.4224444732
 C         -4.1522294945        2.5580498217        0.7343413370
 C         -2.7697722897        2.5353393796        0.6168871813
 C         -2.0932326925        1.3867142911        0.2457584174
 C         -0.6645628781        1.5194233781       -0.0636844536
 C         -0.1660775627        1.1049104848       -1.2983203566
 C          1.1530930351        1.3097468576       -1.6365990708
 C          2.0308571830        1.9265455409       -0.7412766410
 N          3.3736814598        2.1113423554       -1.0590649606
 C          4.0767262581        3.1979669126       -0.5116362655
 C          3.4975850250        4.4648913170       -0.4717077419
 C          4.1927996352        5.5291348119        0.0696159022
 C          5.4716233821        5.3483834704        0.5707647700
 C          6.0522833139        4.0912901003        0.5287869016
 C          5.3628342704        3.0197575814       -0.0054224657
 C          4.0646528782        1.2056346651       -1.8741028471
 C          3.7774890248       -0.1577246081       -1.8385323367
 C          4.4795405870       -1.0397955173       -2.6366169719
 C          5.4827076148       -0.5827474947       -3.4747649881
 C          5.7723640430        0.7713141841       -3.5150903310
 C          5.0696516389        1.6619001441       -2.7271873050
 C          1.5279698065        2.3572307634        0.4901026860
 C          0.2024144440        2.1677797626        0.8127137568
 C         -2.8161780200        0.1732259597        0.0673011413
 C         -2.1954884750       -1.0938562235       -0.1276802057
 C         -0.7748248384       -1.3371188163        0.1521187602
 C         -0.2192899931       -0.9680059155        1.3766407170
 C          1.0893895307       -1.2690036145        1.6831155566
 C          1.9002666067       -1.9399621438        0.7641454811
 N          3.2350365669       -2.2179165888        1.0488856242
 C          3.8547817271       -3.3389651925        0.4721040197
 C          5.1394428205       -3.2361285752       -0.0586966180
 C          5.7466082296       -4.3402841519       -0.6249704491
 C          5.0844620452       -5.5560802382       -0.6754422210
 C          3.8072867626       -5.6623078809       -0.1493423164
 C          3.1942057516       -4.5652459511        0.4246557283
 C          4.0051030951       -1.3634477817        1.8486317481
 C          4.9963765426       -1.8899649760        2.6767941859
 C          5.7794057385       -1.0515184601        3.4456386547
 C          5.5849467068        0.3196264564        3.4108519591
 C          4.5951548976        0.8465482431        2.5988784836
 C          3.8123753319        0.0164945489        1.8205121328
 C          1.3391458195       -2.3263923904       -0.4564992208
 C          0.0231749170       -2.0409879155       -0.7466438814
 C         -2.9677394905       -2.1837734663       -0.4897821587
 C         -4.3498572923       -2.1017140224       -0.5866143566
 C         -4.9902239916       -0.9217225662       -0.2593589281
 C         -4.2376387718        0.2301353848        0.0783363533
 C         -6.4197079333       -0.8213566184       -0.2489560954
 N         -7.2744249275       -1.7583875689       -0.5431306212
 C         -8.5174589811       -1.1972086898       -0.3904291887
 C         -9.7754990097       -1.7562064748       -0.5764485465
 C        -10.8725543943       -0.9499030769       -0.3471209348
 C        -10.7347039370        0.3777476669        0.0564515862
 C         -9.4915520723        0.9542683488        0.2479422390
 C         -8.3914023757        0.1505190184        0.0194419133
 N         -7.0265905176        0.3797047493        0.1062334357
 H         -4.6715663945        3.4618745766        1.0154082338
 H         -2.2099234758        3.4469622369        0.7657281881
 H         -0.8331738361        0.6431028815       -2.0112450682
 H          1.5135842802        1.0017291303       -2.6065704921
 H          2.5036564281        4.6066374254       -0.8705432844
 H          3.7357617270        6.5073582678        0.0931434809
 H          6.0121922366        6.1825984246        0.9914594819
 H          7.0461696937        3.9405050270        0.9233457206
 H          5.8108026206        2.0371436774       -0.0276233314
 H          3.0008128738       -0.5209345550       -1.1846178904
 H          4.2495993108       -2.0945275520       -2.5935969616
 H          6.0325323622       -1.2758226975       -4.0930490150
 H          6.5468067814        1.1396610854       -4.1715704887
 H          5.2931775578        2.7178018433       -2.7691605511
 H          2.1866043736        2.8407044608        1.1963726400
 H         -0.1599385503        2.4944453194        1.7764866967
 H         -0.8344928503       -0.4633076238        2.1071151830
 H          1.4929982247       -0.9942400695        2.6461334450
 H          5.6515158538       -2.2855298221       -0.0294837236
 H          6.7402634152       -4.2471797491       -1.0376494685
 H          5.5609170202       -6.4158405467       -1.1213303076
 H          3.2872802680       -6.6083996297       -0.1784437371
 H          2.2018395624       -4.6497702953        0.8433428882
 H          5.1470070379       -2.9589672505        2.7126253237
 H          6.5426301774       -1.4734725493        4.0824177953
 H          6.1985069036        0.9719254471        4.0131852517
 H          4.4381321670        1.9148136985        2.5613724619
 H          3.0458907758        0.4332101050        1.1869023002
 H          1.9443987578       -2.8518023639       -1.1804227999
 H         -0.3854036871       -2.3395035314       -1.7010571238
 H         -2.4818136024       -3.1345186457       -0.6532800526
 H         -4.9455249810       -2.9567138773       -0.8632923516
 H         -9.8766711465       -2.7827093602       -0.8897761077
 H        -11.8647489727       -1.3534940080       -0.4855971029
 H        -11.6210996076        0.9713490926        0.2227245969
 H         -9.3766957680        1.9794321258        0.5600621795
  95
  -149.185519269300       0.283348425320761      !
 O         -6.9482583780        2.5725549191        0.6814214497
 C         -6.3481084845        1.5615754075        0.3822932773
 C         -4.8810973686        1.4595381772        0.3266105632
 C         -4.1383592565        2.5881702491        0.6163270767
 C         -2.7560888271        2.5651981847        0.4963640269
 C         -2.0780512853        1.4112075747        0.1449387383
 C         -0.6443637905        1.5390073408       -0.1443414993
 C         -0.1187833364        1.1087971192       -1.3621462238
 C          1.2072006992        1.3134927446       -1.6756030702
 C          2.0620514501        1.9486174040       -0.7716989824
 N          3.4093696096        2.1524993270       -1.0642063186
 C          4.1508671833        1.2270523658       -1.8063261707
 C          3.8614497343       -0.1358984376       -1.7545944927
 C          4.6220087023       -1.0389352465       -2.4712841541
 C          5.6864567490       -0.6054476826       -3.2437230526
 C          5.9734850048        0.7482332032       -3.3069775748
 C          5.2120805665        1.6598762294       -2.6024545785
 C          4.0526931127        3.2916785835       -0.5496815262
 C          5.3235127146        3.1952675343        0.0141804738
 C          5.9445770947        4.3215460467        0.5193293504
 C          5.3108034741        5.5527259559        0.4744551473
 C          4.0473070164        5.6523506355       -0.0848302255
 C          3.4203295066        4.5328559992       -0.5970421888
 C          1.5338525775        2.3891047381        0.4452821280
 C          0.2031859047        2.1983445126        0.7434269727
 C         -2.8010795454        0.1960198221       -0.0204529936
 C         -2.1804921220       -1.0731372902       -0.1992655516
 C         -0.7626573775       -1.3160894602        0.0956655041
 C         -0.2226238822       -0.9361869221        1.3238369848
 C          1.0780243740       -1.2468635409        1.6546874454
 C          1.8918234871       -1.9420960451        0.7578632788
 N          3.2152968566       -2.2532835078        1.0687659507
 C          3.7651685293       -3.4494326798        0.5774442758
 C          5.0513270106       -3.4717078014        0.0411704933
 C          5.5802589327       -4.6535615861       -0.4413029312
 C          4.8383736472       -5.8229787578       -0.4014875909
 C          3.5589457125       -5.8043351378        0.1293386567
 C          3.0234923001       -4.6288358747        0.6192074316
 C          4.0126009209       -1.3911426233        1.8278997762
 C          5.0192619918       -1.9053996519        2.6460565534
 C          5.8303053466       -1.0560816425        3.3728149427
 C          5.6481756897        0.3156187254        3.3097922306
 C          4.6391311422        0.8310127329        2.5136154325
 C          3.8299124577       -0.0096090969        1.7749221898
 C          1.3490061768       -2.3325046507       -0.4693703067
 C          0.0417248343       -2.0351185342       -0.7851816752
 C         -2.9517302915       -2.1675827690       -0.5496728660
 C         -4.3342986143       -2.0886792104       -0.6426009002
 C         -4.9750237705       -0.9065541667       -0.3237347910
 C         -4.2227100730        0.2511939342       -0.0061503034
 C         -6.4046950115       -0.8134729134       -0.2894294905
 N         -7.2593831310       -1.7610966846       -0.5472828023
 C         -8.5023845090       -1.2083530880       -0.3659543643
 C         -9.7603726192       -1.7818647802       -0.5014354256
 C        -10.8569813011       -0.9839494077       -0.2424384129
 C        -10.7189075143        0.3498980159        0.1403200328
 C         -9.4759094107        0.9415426229        0.2793081401
 C         -8.3762650881        0.1458516651        0.0219123760
 N         -7.0116080217        0.3880398757        0.0644468856
 H         -4.6580371585        3.4946928613        0.8879719496
 H         -2.1970624571        3.4790917949        0.6338555110
 H         -0.7695415655        0.6358364730       -2.0828364576
 H          1.5899468681        0.9940064631       -2.6333549041
 H          3.0389695806       -0.4848777474       -1.1508342368
 H          4.3886303038       -2.0923551310       -2.4150081071
 H          6.2849249225       -1.3156172979       -3.7936415390
 H          6.7938206672        1.0997619416       -3.9153344226
 H          5.4357755070        2.7147468058       -2.6646626507
 H          5.8137754744        2.2337070943        0.0575324949
 H          6.9272169150        4.2347852338        0.9589810587
 H          5.7983967578        6.4294259922        0.8728346659
 H          3.5487659150        6.6093561723       -0.1291005418
 H          2.4373336020        4.6103575377       -1.0385102783
 H          2.1777531190        2.8828098948        1.1580677471
 H         -0.1801846208        2.5347181738        1.6956216157
 H         -0.8447668084       -0.4172921649        2.0382755687
 H          1.4713937790       -0.9647460548        2.6198462767
 H          5.6267879602       -2.5582942425        0.0036569736
 H          6.5762899940       -4.6590668148       -0.8588033020
 H          5.2550597728       -6.7437007747       -0.7805288519
 H          2.9766742350       -6.7129701600        0.1709306670
 H          2.0279635711       -4.6142495716        1.0386008366
 H          5.1598426957       -2.9744089070        2.7098536848
 H          6.6061242663       -1.4707140600        3.9995584333
 H          6.2841884064        0.9766062343        3.8785476090
 H          4.4870057174        1.8992507508        2.4577716584
 H          3.0499567109        0.4024000173        1.1546131735
 H          1.9626513761       -2.8727078555       -1.1752301449
 H         -0.3547929021       -2.3365247076       -1.7437086045
 H         -2.4647992468       -3.1194214673       -0.7036395559
 H         -4.9296231717       -2.9481354931       -0.9059827377
 H         -9.8620443111       -2.8139785846       -0.7955489036
 H        -11.8492443888       -1.4004338780       -0.3361547993
 H        -11.6050694239        0.9359128515        0.3333415986
 H         -9.3606695827        1.9717855426        0.5740738350
  95
  -149.184787587400       0.130636063143776      !
 O         -6.9886076770        1.7627673422       -1.9986917412
 C         -6.3880229989        1.0675096390       -1.2065843308
 C         -4.9202893281        1.0223297761       -1.0974601833
 C         -4.1849686004        1.8375287912       -1.9353353870
 C         -2.8025385822        1.8823384051       -1.8273701977
 C         -2.1169746235        1.0900838440       -0.9237425505
 C         -0.6722106097        1.3343806281       -0.8037450309
 C          0.1280728040        1.3539973352       -1.9441933707
 C          1.4719368942        1.6428190262       -1.8646457978
 C          2.0634152098        1.9370965344       -0.6346723644
 N          3.4283562364        2.2133522079       -0.5575022208
 C          4.3159882208        1.5893562404       -1.4471044215
 C          4.1340219394        0.2540204970       -1.8026955209
 C          4.9955589990       -0.3531204516       -2.6954067895
 C          6.0615974179        0.3516850390       -3.2297090835
 C          6.2539683910        1.6756551724       -2.8706825199
 C          5.3865324175        2.2963019367       -1.9926482934
 C          3.9218125753        3.1457583586        0.3642048739
 C          5.1643689591        2.9461265889        0.9653205979
 C          5.6569880191        3.8685221158        1.8678744266
 C          4.9221384177        4.9977150799        2.1903079856
 C          3.6886809123        5.2017439875        1.5938499545
 C          3.1905082377        4.2891959221        0.6841109650
 C          1.2566295924        1.9483426031        0.5060157444
 C         -0.0873650782        1.6548627884        0.4191819255
 C         -2.8321472639        0.1530391350       -0.1243102117
 C         -2.2108340169       -0.8073566068        0.7250914662
 C         -0.7756952274       -1.1236407855        0.6871272439
 C         -0.0382757904       -1.1864774033        1.8674613438
 C          1.2881970419       -1.5564922204        1.8583269956
 C          1.9237350561       -1.8902330220        0.6611267625
 N          3.2703602698       -2.2556377378        0.6533795156
 C          3.7419038187       -3.2262798088       -0.2399036416
 C          5.0214652945       -3.1160294084       -0.7837250992
 C          5.4892822256       -4.0746836382       -1.6615001884
 C          4.6932416520       -5.1518222613       -2.0154353271
 C          3.4230019663       -5.2676404641       -1.4749819347
 C          2.9487341012       -4.3184818237       -0.5903532869
 C          4.1510223313       -1.6909026709        1.5873099554
 C          4.0374650358       -0.3469290122        1.9395147163
 C          4.8901185898        0.2022868158        2.8770491664
 C          5.8805993454       -0.5701568282        3.4609465166
 C          6.0056336861       -1.9032141745        3.1058371406
 C          5.1455856243       -2.4656210694        2.1825823683
 C          1.1796295825       -1.8528232988       -0.5206741401
 C         -0.1470476220       -1.4799211680       -0.5038868593
 C         -2.9863798428       -1.5630842265        1.5867979307
 C         -4.3709083159       -1.4744513610        1.5992348411
 C         -5.0092324081       -0.6443996730        0.6986813682
 C         -4.2557642199        0.1779229584       -0.1753481938
 C         -6.4392205156       -0.5947548298        0.6146927535
 N         -7.2906952215       -1.2690859480        1.3323349533
 C         -8.5354679443       -0.9011176660        0.8865876476
 C         -9.7915969863       -1.3206411033        1.3056783205
 C        -10.8906012079       -0.7809296224        0.6675260105
 C        -10.7567931299        0.1519142068       -0.3602922163
 C         -9.5156217600        0.5842162997       -0.7927145120
 C         -8.4137501884        0.0461466467       -0.1564349075
 N         -7.0499396021        0.2360046834       -0.3194709211
 H         -4.7090502882        2.4625760912       -2.6426755555
 H         -2.2465428545        2.5816350200       -2.4345469394
 H         -0.3088438569        1.1222596979       -2.9046792215
 H          2.0748572815        1.6518020043       -2.7603752131
 H          3.3098194632       -0.2987125308       -1.3789913695
 H          4.8372801652       -1.3863116214       -2.9674976054
 H          6.7360826062       -0.1268454712       -3.9232760547
 H          7.0787357612        2.2348197539       -3.2872032749
 H          5.5294789246        3.3338948100       -1.7284831844
 H          5.7360582902        2.0624808795        0.7228212927
 H          6.6194088942        3.6987334538        2.3279835656
 H          5.3088066997        5.7147555431        2.8983216897
 H          3.1128607419        6.0842109072        1.8309856087
 H          2.2349224528        4.4601006855        0.2103893031
 H          1.6893325859        2.1928367155        1.4652215624
 H         -0.6976468072        1.6831263819        1.3097719170
 H         -0.5104395080       -0.9271550326        2.8039420548
 H          1.8417149876       -1.6002002607        2.7844708451
 H          5.6412671465       -2.2726424572       -0.5169575121
 H          6.4809127001       -3.9741786607       -2.0779633927
 H          5.0607857971       -5.8968483265       -2.7045341460
 H          2.7986054402       -6.1093117667       -1.7363575790
 H          1.9630733795       -4.4205495164       -0.1602865739
 H          3.2726476790        0.2584755224        1.4778224745
 H          4.7848085751        1.2430942805        3.1457885158
 H          6.5484838175       -0.1368614528        4.1897424682
 H          6.7708220467       -2.5148773514        3.5607041473
 H          5.2344910032       -3.5100815051        1.9218966468
 H          1.6463053122       -2.1257323585       -1.4560532369
 H         -0.7102977932       -1.4742032250       -1.4254364913
 H         -2.4972365845       -2.2745915165        2.2358564759
 H         -4.9670685864       -2.0740879152        2.2681697916
 H         -9.8902511540       -2.0424765110        2.1000776607
 H        -11.8814994805       -1.0872571971        0.9687855253
 H        -11.6447037966        0.5459848836       -0.8316978673
 H         -9.4032718457        1.3040886399       -1.5869220305
  95
  -149.184690544800       0.117886858040440      !
 O         -6.9786248374        1.5481487553       -2.1440594127
 C         -6.3758813988        0.9455186785       -1.2808950396
 C         -4.9076777472        0.8724320318       -1.1991816773
 C         -4.1723132045        1.5522705379       -2.1503796187
 C         -2.7877620982        1.5873513284       -2.0671170061
 C         -2.1020673962        0.9128223510       -1.0727223880
 C         -0.6583957093        1.1708897085       -0.9781442979
 C          0.1527195526        1.0624831633       -2.1056470691
 C          1.4921920343        1.3780856020       -2.0505091642
 C          2.0655709461        1.8305180989       -0.8609664613
 N          3.4213205315        2.1548547330       -0.8054620630
 C          3.8621553002        3.2224532576       -0.0119466074
 C          3.0819000295        4.3688550904        0.1353857075
 C          3.5230040331        5.4148315629        0.9225613769
 C          4.7475919478        5.3418587590        1.5658123361
 C          5.5315869078        4.2100001982        1.4131576464
 C          5.0963974172        3.1555994680        0.6338898423
 C          4.3423272175        1.4514585274       -1.5946522919
 C          4.1984628519        0.0788897179       -1.7923798990
 C          5.0969694612       -0.6084863089       -2.5849101069
 C          6.1621030138        0.0531359695       -3.1735724036
 C          6.3149425143        1.4151138575       -2.9729529884
 C          5.4104974127        2.1143859696       -2.1975921440
 C          1.2498731931        1.9587928772        0.2661294142
 C         -0.0885915663        1.6376070170        0.2045499324
 C         -2.8191051159        0.0930964437       -0.1547250880
 C         -2.1984298334       -0.7661218346        0.7970026187
 C         -0.7664002436       -1.0984348278        0.7810752656
 C         -0.0174544304       -1.0279979192        1.9537537019
 C          1.3076285443       -1.4026249135        1.9747390466
 C          1.9296760159       -1.8736553687        0.8175125550
 N          3.2741865508       -2.2486879046        0.8389142620
 C          3.7206004407       -3.3337211764        0.0736326552
 C          4.9956388877       -3.3179974635       -0.4914080852
 C          5.4370243131       -4.3899154212       -1.2426342819
 C          4.6191740457       -5.4890825923       -1.4475842122
 C          3.3534347563       -5.5110337290       -0.8853575409
 C          2.9052947813       -4.4473070092       -0.1265127443
 C          4.1706824823       -1.5779908008        1.6827935651
 C          5.1756154472       -2.2767974372        2.3504040814
 C          6.0529496278       -1.6084600499        3.1822336260
 C          5.9346593956       -0.2419584816        3.3752942219
 C          4.9323304180        0.4556123808        2.7215041559
 C          4.0627406095       -0.2009867176        1.8728668724
 C          1.1755444085       -1.9658724947       -0.3546544786
 C         -0.1502973910       -1.5896197237       -0.3678500280
 C         -2.9717631000       -1.4011437805        1.7531135453
 C         -4.3539427721       -1.2820093411        1.7781813717
 C         -4.9938200416       -0.5508759530        0.7964682322
 C         -4.2424045711        0.1381739276       -0.1875323436
 C         -6.4236229497       -0.4664103146        0.7412471490
 N         -7.2734529672       -1.0106350442        1.5636636306
 C         -8.5189133963       -0.6536279902        1.1109138502
 C         -9.7739852409       -0.9637047344        1.6192015296
 C        -10.8742708003       -0.4632230870        0.9519629969
 C        -10.7426007005        0.3253559067       -0.1906146858
 C         -9.5025049459        0.6464880364       -0.7135889682
 C         -8.3993382659        0.1474491445       -0.0484854158
 N         -7.0359646349        0.2609642052       -0.2745685960
 H         -4.6972861980        2.0892501132       -2.9260065110
 H         -2.2304853293        2.1932859787       -2.7663467217
 H         -0.2718778310        0.7109850589       -3.0348020459
 H          2.1042434960        1.2885733668       -2.9356302834
 H          2.1324434737        4.4361398583       -0.3753547906
 H          2.9090164905        6.2972968625        1.0263351363
 H          5.0895279502        6.1621318986        2.1783182092
 H          6.4879671389        4.1430197486        1.9107800734
 H          5.7070399948        2.2718841362        0.5216586199
 H          3.3754152418       -0.4411100051       -1.3264851782
 H          4.9670588635       -1.6699054261       -2.7371142053
 H          6.8661906627       -0.4882573431       -3.7868844400
 H          7.1381277110        1.9411319247       -3.4335498478
 H          5.5232620007        3.1795876464       -2.0583271546
 H          1.6718921511        2.3198508677        1.1927597405
 H         -0.7074855992        1.7606046908        1.0810415540
 H         -0.4794638874       -0.6604529798        2.8585193065
 H          1.8705866692       -1.3426124982        2.8942713654
 H          5.6334873195       -2.4599237707       -0.3384411259
 H          6.4256520077       -4.3624948487       -1.6770216915
 H          4.9665741824       -6.3234816727       -2.0374983508
 H          2.7119816625       -6.3678548713       -1.0299770229
 H          1.9229175393       -4.4756183620        0.3217881137
 H          5.2599336740       -3.3454201570        2.2175228187
 H          6.8268677329       -2.1622380871        3.6931223978
 H          6.6165381943        0.2751722492        4.0330430675
 H          4.8294610929        1.5209197952        2.8670094259
 H          3.2880506073        0.3462750447        1.3578778577
 H          1.6349654776       -2.3417297264       -1.2573773796
 H         -0.7224314345       -1.6858907540       -1.2788564134
 H         -2.4837568188       -2.0401300679        2.4744662853
 H         -4.9483984425       -1.7830198143        2.5251538956
 H         -9.8709022498       -1.5733876322        2.5029245383
 H        -11.8644685387       -0.6859092307        1.3216491793
 H        -11.6315181712        0.6946163777       -0.6798429600
 H         -9.3920377721        1.2552182820       -1.5961108429
