  95
       -149.84084857
 O         -6.9630714870        2.5508558780        0.7688601612
 C         -6.3627248762        1.5429012070        0.4597899245
 C         -4.8956251063        1.4355787416        0.4224444732
 C         -4.1522294945        2.5580498217        0.7343413370
 C         -2.7697722897        2.5353393796        0.6168871813
 C         -2.0932326925        1.3867142911        0.2457584174
 C         -0.6645628781        1.5194233781       -0.0636844536
 C         -0.1660775627        1.1049104848       -1.2983203566
 C          1.1530930351        1.3097468576       -1.6365990708
 C          2.0308571830        1.9265455409       -0.7412766410
 N          3.3736814598        2.1113423554       -1.0590649606
 C          4.0767262581        3.1979669126       -0.5116362655
 C          3.4975850250        4.4648913170       -0.4717077419
 C          4.1927996352        5.5291348119        0.0696159022
 C          5.4716233821        5.3483834704        0.5707647700
 C          6.0522833139        4.0912901003        0.5287869016
 C          5.3628342704        3.0197575814       -0.0054224657
 C          4.0646528782        1.2056346651       -1.8741028471
 C          3.7774890248       -0.1577246081       -1.8385323367
 C          4.4795405870       -1.0397955173       -2.6366169719
 C          5.4827076148       -0.5827474947       -3.4747649881
 C          5.7723640430        0.7713141841       -3.5150903310
 C          5.0696516389        1.6619001441       -2.7271873050
 C          1.5279698065        2.3572307634        0.4901026860
 C          0.2024144440        2.1677797626        0.8127137568
 C         -2.8161780200        0.1732259597        0.0673011413
 C         -2.1954884750       -1.0938562235       -0.1276802057
 C         -0.7748248384       -1.3371188163        0.1521187602
 C         -0.2192899931       -0.9680059155        1.3766407170
 C          1.0893895307       -1.2690036145        1.6831155566
 C          1.9002666067       -1.9399621438        0.7641454811
 N          3.2350365669       -2.2179165888        1.0488856242
 C          3.8547817271       -3.3389651925        0.4721040197
 C          5.1394428205       -3.2361285752       -0.0586966180
 C          5.7466082296       -4.3402841519       -0.6249704491
 C          5.0844620452       -5.5560802382       -0.6754422210
 C          3.8072867626       -5.6623078809       -0.1493423164
 C          3.1942057516       -4.5652459511        0.4246557283
 C          4.0051030951       -1.3634477817        1.8486317481
 C          4.9963765426       -1.8899649760        2.6767941859
 C          5.7794057385       -1.0515184601        3.4456386547
 C          5.5849467068        0.3196264564        3.4108519591
 C          4.5951548976        0.8465482431        2.5988784836
 C          3.8123753319        0.0164945489        1.8205121328
 C          1.3391458195       -2.3263923904       -0.4564992208
 C          0.0231749170       -2.0409879155       -0.7466438814
 C         -2.9677394905       -2.1837734663       -0.4897821587
 C         -4.3498572923       -2.1017140224       -0.5866143566
 C         -4.9902239916       -0.9217225662       -0.2593589281
 C         -4.2376387718        0.2301353848        0.0783363533
 C         -6.4197079333       -0.8213566184       -0.2489560954
 N         -7.2744249275       -1.7583875689       -0.5431306212
 C         -8.5174589811       -1.1972086898       -0.3904291887
 C         -9.7754990097       -1.7562064748       -0.5764485465
 C        -10.8725543943       -0.9499030769       -0.3471209348
 C        -10.7347039370        0.3777476669        0.0564515862
 C         -9.4915520723        0.9542683488        0.2479422390
 C         -8.3914023757        0.1505190184        0.0194419133
 N         -7.0265905176        0.3797047493        0.1062334357
 H         -4.6715663945        3.4618745766        1.0154082338
 H         -2.2099234758        3.4469622369        0.7657281881
 H         -0.8331738361        0.6431028815       -2.0112450682
 H          1.5135842802        1.0017291303       -2.6065704921
 H          2.5036564281        4.6066374254       -0.8705432844
 H          3.7357617270        6.5073582678        0.0931434809
 H          6.0121922366        6.1825984246        0.9914594819
 H          7.0461696937        3.9405050270        0.9233457206
 H          5.8108026206        2.0371436774       -0.0276233314
 H          3.0008128738       -0.5209345550       -1.1846178904
 H          4.2495993108       -2.0945275520       -2.5935969616
 H          6.0325323622       -1.2758226975       -4.0930490150
 H          6.5468067814        1.1396610854       -4.1715704887
 H          5.2931775578        2.7178018433       -2.7691605511
 H          2.1866043736        2.8407044608        1.1963726400
 H         -0.1599385503        2.4944453194        1.7764866967
 H         -0.8344928503       -0.4633076238        2.1071151830
 H          1.4929982247       -0.9942400695        2.6461334450
 H          5.6515158538       -2.2855298221       -0.0294837236
 H          6.7402634152       -4.2471797491       -1.0376494685
 H          5.5609170202       -6.4158405467       -1.1213303076
 H          3.2872802680       -6.6083996297       -0.1784437371
 H          2.2018395624       -4.6497702953        0.8433428882
 H          5.1470070379       -2.9589672505        2.7126253237
 H          6.5426301774       -1.4734725493        4.0824177953
 H          6.1985069036        0.9719254471        4.0131852517
 H          4.4381321670        1.9148136985        2.5613724619
 H          3.0458907758        0.4332101050        1.1869023002
 H          1.9443987578       -2.8518023639       -1.1804227999
 H         -0.3854036871       -2.3395035314       -1.7010571238
 H         -2.4818136024       -3.1345186457       -0.6532800526
 H         -4.9455249810       -2.9567138773       -0.8632923516
 H         -9.8766711465       -2.7827093602       -0.8897761077
 H        -11.8647489727       -1.3534940080       -0.4855971029
 H        -11.6210996076        0.9713490926        0.2227245969
 H         -9.3766957680        1.9794321258        0.5600621795
