110
 energy: -170.219543204930 gnorm: 0.000053503155 xtb: 6.7.1 (edcfbbe)
C            2.91072608182980       -3.66466439269895       -0.20304600945268
C            1.94350801752923       -3.39721430565782       -1.15693820021713
C            1.21530232239229       -2.22321601399013       -1.09925217850615
C            1.44666473237950       -1.29865888004802       -0.08593674855466
C            0.70001722761032       -0.02295700066694       -0.04719658981321
C           -0.69417182593756       -0.02364269423603        0.01306939248398
C           -1.44146770423880       -1.29927254229534        0.03675237357261
C           -2.40896255241895       -1.56780410159260       -0.92751772422347
C           -3.13955126770743       -2.74053722868354       -0.88164351187463
C           -2.91013036360905       -3.66371851490700        0.12524250014900
C           -1.93932143640347       -3.41165987792312        1.07968535285251
C           -1.20892117455155       -2.23838290496603        1.03631905739262
C           -1.39266609661313        1.18927919674063        0.05635388794947
C           -2.86603855063398        1.16320265691632        0.10696050531287
C           -3.62550671105624        1.78028557714090       -0.88200967584452
C           -4.99782458815036        1.62677909578784       -0.90866864802308
C           -5.64130368869363        0.84921445321736        0.04949113862605
C           -7.07661975251658        0.55168650737147       -0.04999350613640
C           -8.04360750675897        1.52793885811935       -0.24415832370000
C           -9.39581693250761        1.21036187713362       -0.33552442660471
C           -9.83291614182206       -0.09716888152314       -0.25314644209370
C           -8.88922782589118       -1.10263850109246       -0.08087281953228
C           -7.51934708170303       -0.77025255274689        0.02340381424947
N           -6.78739848364448       -1.92303079234013        0.15790755698641
C           -7.63594244160818       -2.99923863073998        0.14344234481401
C           -7.34864651073164       -4.35183312930524        0.24479409797025
C           -8.40763063630334       -5.23815008157450        0.20727992477071
C           -9.72153674588247       -4.79295400621252        0.07300322497033
C          -10.01303640010121       -3.44717351235944       -0.02899104041175
C           -8.96585271735582       -2.53532062721321        0.00547009256133
C           -4.88635691552166        0.29814485087717        1.08330296089072
C           -3.51730308115252        0.45590474631442        1.11354501290231
C           -0.69498975088437        2.39535116099385        0.02848944759894
C           -1.41161298439603        3.68486710520063        0.05125894753721
C           -2.31557625305088        3.99125912785126        1.06658197821028
C           -2.94602944189707        5.22111850247702        1.04157692821631
C           -2.65970984721931        6.10098409231254        0.00876046115631
C           -1.74782021452617        5.69945787070914       -0.95415239066369
N           -1.14096108992750        4.52806596439904       -0.93986680798526
C            0.69958761195898        2.39615530974482       -0.03789741960715
C            1.41343360895471        3.68712564182809       -0.04807429080697
C            2.32702802049254        4.00127581579245       -1.05237219412063
C            2.95153149773183        5.23395139606282       -1.01610390725394
C            2.64969226069100        6.10910069572526        0.01626542679993
C            1.72911838913407        5.70007437755334        0.96773614531203
N            1.12814598860384        4.52594173183143        0.94276851598460
C            1.39807552230136        1.19066073914689       -0.07582750856379
C            2.87175740492285        1.16540470481896       -0.11673934026979
C            3.62235636096928        1.77229063455623        0.88532547888840
C            4.99415528809090        1.61712074305347        0.92380091444415
C            5.64605232563045        0.84785016456537       -0.03538649745787
C            7.07964411394544        0.54646398368743        0.07710545384072
C            8.04650559118379        1.51889917499107        0.29005707255057
C            9.39673887845926        1.19729074604629        0.39566003478016
C            9.83159825444140       -0.11074782386216        0.30969544203608
C            8.88769877148982       -1.11259476615463        0.11847923435141
C            7.52006446609360       -0.77597513050788       -0.00076382062916
N            6.78705953965552       -1.92586922197937       -0.15297602693296
C            7.63269355818159       -3.00430819461761       -0.13534839496596
C            7.34336497718335       -4.35539705904181       -0.25008289531587
C            8.39955379860234       -5.24469451039051       -0.20509455622796
C            9.71269344247567       -4.80388748081544       -0.05045640663050
C           10.00621758065646       -3.45961794084527        0.06483076892795
C            8.96186441948135       -2.54483083339029        0.02309632528226
C            4.90066180844318        0.30797116301930       -1.08193596698020
C            3.53205209459764        0.46753574698144       -1.12400114754428
C            2.41070055668547       -1.58249463734640        0.87736919344633
C            3.13888211405004       -2.75613820072662        0.81738073558595
H            3.48013697519128       -4.58145804687204       -0.25149310438509
H            1.75813660931480       -4.10467376789666       -1.95185318088034
H            0.47033876655408       -2.01175362250441       -1.85259232698906
H           -2.58597403480086       -0.85299216342243       -1.71802212138457
H           -3.88893837435423       -2.93555134405370       -1.63611326185415
H           -3.48149051298350       -4.57982380333316        0.16257125921963
H           -1.75293309581882       -4.13058023109046        1.86401602067391
H           -0.46151712557669       -2.03902099153983        1.79052616601842
H           -3.12855463016614        2.34995648321982       -1.65422022718606
H           -5.57708505061548        2.07647655817855       -1.70197537838121
H           -7.73439056134020        2.56139215762513       -0.30532172578641
H          -10.11241247182536        2.00642600693908       -0.47422093371965
H          -10.88270429968053       -0.33697400639544       -0.32708322379133
H           -5.78274922091515       -1.96807723298200        0.20404810834165
H           -6.33044895048335       -4.69646835770820        0.35003924646306
H           -8.21529253693072       -6.29834303750632        0.28355010735032
H          -10.52197774135840       -5.51752463042712        0.04866841265479
H          -11.03250151795909       -3.10730114232284       -0.13311910581023
H           -5.38241091864833       -0.25358031037526        1.86952242715698
H           -2.94110846599103        0.01670275509704        1.91506072106415
H           -2.50207971731000        3.28393573931216        1.85944639565620
H           -3.64850910801314        5.49236828608382        1.81686985345110
H           -3.12903733668927        7.07100773562838       -0.04677794229948
H           -1.48725923019736        6.34474873801592       -1.78405573676730
H            2.52544247032767        3.29797453459805       -1.84591799816961
H            3.66119375743073        5.51109963902343       -1.78271780454021
H            3.11373963524694        7.08114806251860        0.08006674319121
H            1.45624598646529        6.34131661359333        1.79681641358051
H            3.11840773823887        2.33474835760194        1.65830136754161
H            5.56613171280555        2.05830635098754        1.72710955314354
H            7.73897616676294        2.55261959844414        0.35512465604564
H           10.11355436286977        1.99050532531072        0.54880776606518
H           10.87977798284668       -0.35369138731191        0.39532187428329
H            5.78298438164321       -1.96813642278418       -0.21260241955064
H            6.32575832869549       -4.69661480495342       -0.37095590932715
H            8.20563982632038       -6.30382199832132       -0.29147276984666
H           10.51087783652717       -5.53074176721932       -0.02076768093615
H           11.02506789520379       -3.12312554677017        0.18473997406044
H            5.40376733021041       -0.23687221677001       -1.86848029739620
H            2.96332235164608        0.03670995890136       -1.93533508971153
H            2.58687097264975       -0.87915667184469        1.67830735802960
H            3.88516092318694       -2.96347642133261        1.57168611762414
