  110
       -170.21938640
 C          2.9337921086       -3.6546648475       -0.2232075498
 C          1.9637372871       -3.3907805997       -1.1751415576
 C          1.2294188378       -2.2207276695       -1.1140455306
 C          1.4574185332       -1.2968193052       -0.0993956447
 C          0.7057720272       -0.0240431376       -0.0596366343
 C         -0.6883949699       -0.0288649537        0.0023180708
 C         -1.4317353458       -1.3067369128        0.0269889318
 C         -2.4016965609       -1.5764614551       -0.9344454301
 C         -3.1294795568       -2.7509317059       -0.8875333584
 C         -2.8947868291       -3.6746886389        0.1175178363
 C         -1.9211954491       -3.4215904259        1.0689125989
 C         -1.1935386437       -2.2466974204        1.0244985438
 C         -1.3907776015        1.1819226861        0.0462407853
 C         -2.8638399013        1.1522861888        0.1035967707
 C         -3.6299762081        1.7729658654       -0.8780095509
 C         -5.0026555845        1.6210901312       -0.8951976985
 C         -5.6400960046        0.8406667907        0.0646481148
 C         -7.0773900156        0.5484458490       -0.0236712413
 C         -8.0424364190        1.5303612592       -0.1983131641
 C         -9.3967344841        1.2191898525       -0.2792596184
 C         -9.8381105284       -0.0875157089       -0.2062520834
 C         -8.8967014093       -1.0981130323       -0.0532079241
 C         -7.5245185732       -0.7723310136        0.0416860787
 N         -6.7963570604       -1.9293440495        0.1599373245
 C         -7.6495385491       -3.0019285449        0.1432899621
 C         -7.3680480241       -4.3566880028        0.2311889425
 C         -8.4316534214       -5.2375845938        0.1953130093
 C         -9.7446186236       -4.7854962848        0.0754945564
 C        -10.0304707716       -3.4375926069       -0.0129285171
 C         -8.9785280162       -2.5312133360        0.0206595207
 C         -4.8780150862        0.2832436516        1.0896999572
 C         -3.5086860937        0.4404217225        1.1112167447
 C         -0.6967705779        2.3902091092        0.0137525915
 C         -1.4145743184        3.6790274351        0.0356205685
 C         -2.3166125676        3.9875607374        1.0520205494
 C         -2.9453065772        5.2183539941        1.0267288260
 C         -2.6593058344        6.0969578180       -0.0073183954
 C         -1.7493898681        5.6933145799       -0.9711844704
 N         -1.1441121968        4.5211099518       -0.9565005848
 C          0.6974834401        2.3948763997       -0.0557188794
 C          1.4100027373        3.6866613585       -0.0742507568
 C          2.3118291662        3.9984992241       -1.0899096691
 C          2.9383735353        5.2302705322       -1.0625946843
 C          2.6506130275        6.1064871014       -0.0270427560
 C          1.7411507356        5.6996689204        0.9358755604
 N          1.1376955050        4.5264455610        0.9191902224
 C          1.3998171655        1.1917162730       -0.0905675453
 C          2.8737430828        1.1723951239       -0.1269206324
 C          3.6167072608        1.7807477987        0.8799366909
 C          4.9882574181        1.6265632735        0.9283316173
 C          5.6476099673        0.8578013521       -0.0262053229
 C          7.0791661799        0.5528753797        0.1004632810
 C          8.0454425272        1.5211175428        0.3342349313
 C          9.3933348154        1.1954344539        0.4565666591
 C          9.8262666720       -0.1129153378        0.3665551626
 C          8.8827130707       -1.1107830984        0.1538125930
 C          7.5175928559       -0.7701491133        0.0184924190
 N          6.7843765208       -1.9172277060       -0.1525736364
 C          7.6274960365       -2.9975758286       -0.1333907431
 C          7.3374317572       -4.3469119814       -0.2649615315
 C          8.3913832362       -5.2386655160       -0.2143427262
 C          9.7030493714       -4.8020381400       -0.0374062875
 C          9.9973728731       -3.4594306645        0.0946733982
 C          8.9553512544       -2.5423233591        0.0471884753
 C          4.9104238796        0.3202001864       -1.0798597388
 C          3.5418821493        0.4776381857       -1.1310859891
 C          2.4240155297       -1.5774350511        0.8623371086
 C          3.1583426559       -2.7470343436        0.7989114900
 H          3.5083942718       -4.5680919324       -0.2739765883
 H          1.7812192604       -4.0974074485       -1.9714555070
 H          0.4822682002       -2.0113988139       -1.8658117475
 H         -2.5827330538       -0.8614067250       -1.7238423149
 H         -3.8805259115       -2.9467905950       -1.6401359429
 H         -3.4643722029       -4.5918369047        0.1561618010
 H         -1.7312352688       -4.1406877342        1.8522464388
 H         -0.4445160667       -2.0461439246        1.7767958808
 H         -3.1382967169        2.3448891755       -1.6519286219
 H         -5.5871878791        2.0748999004       -1.6822906245
 H         -7.7294270534        2.5631053114       -0.2522039316
 H        -10.1116293942        2.0193638248       -0.4021972704
 H        -10.8894694071       -0.3226185831       -0.2725253833
 H         -5.7915253813       -1.9786081983        0.1967396466
 H         -6.3509103373       -4.7077333228        0.3249900502
 H         -8.2437587637       -6.2992510639        0.2614962659
 H        -10.5483900670       -5.5063900377        0.0518059899
 H        -11.0488911749       -3.0914343998       -0.1057982134
 H         -5.3687889682       -0.2723274377        1.8765354177
 H         -2.9275344402       -0.0020063076        1.9073363571
 H         -2.5030080636        3.2812671572        1.8458610547
 H         -3.6461515522        5.4913776663        1.8029059739
 H         -3.1276865851        7.0674223315       -0.0630491499
 H         -1.4896196715        6.3370053404       -1.8025278643
 H          2.4993426738        3.2937209133       -1.8848325756
 H          3.6385702183        5.5060316844       -1.8383666023
 H          3.1170735755        7.0777828606        0.0305671785
 H          1.4798650624        6.3415907459        1.7681660306
 H          3.1067055433        2.3425001726        1.6494272562
 H          5.5539034236        2.0673648965        1.7363012574
 H          7.7399167465        2.5552074017        0.4027721630
 H         10.1095658556        1.9859008736        0.6259416162
 H         10.8725044629       -0.3594554567        0.4648466551
 H          5.7810580031       -1.9572350077       -0.2258449855
 H          6.3211354751       -4.6854672317       -0.4032090596
 H          8.1964402016       -6.2964574363       -0.3139181237
 H         10.4995650896       -5.5305613728       -0.0041417636
 H         11.0150856867       -3.1259508230        0.2316289114
 H          5.4198942269       -0.2220656422       -1.8640828009
 H          2.9790565828        0.0463166095       -1.9462888234
 H          2.5976124157       -0.8747790582        1.6644206626
 H          3.9070260093       -2.9522108701        1.5514307084
