110
 energy: -170.125134246719 gnorm: 0.000056423670 xtb: 6.7.1 (edcfbbe)
C            2.89651113329402       -3.68792933378939       -0.13246417323873
C            1.91318732777770       -3.45916681254670       -1.08111031480901
C            1.20093292265528       -2.27488539370276       -1.07489609049612
C            1.46442866714204       -1.29468998632631       -0.12050100269819
C            0.72519896818666       -0.01791392218192       -0.11432113598816
C           -0.65612028555540       -0.02521374699600       -0.01784491940228
C           -1.40286592453722       -1.30153347637746        0.00417692938432
C           -2.38116684080716       -1.55710988199305       -0.95334562256455
C           -3.11202669968567       -2.72987755572274       -0.91620524807897
C           -2.87442494131139       -3.66640250733195        0.07645714083534
C           -1.89551335235753       -3.42632457329228        1.02595076784010
C           -1.16462236574379       -2.25332218307272        0.99109279300650
C           -1.37486544010598        1.18860176592691        0.06383261100714
C           -2.83547135847781        1.15733767256115        0.15060280706460
C           -3.62807545954575        1.86366207763145       -0.75631820112632
C           -4.99822937127864        1.71061848851652       -0.76144845053742
C           -5.62171844170484        0.84646484236657        0.13758860316706
C           -7.05577703436124        0.55731842417832        0.04755340038056
C           -8.02337968252988        1.54556520794898       -0.08722616295469
C           -9.37751595030741        1.23860208423871       -0.16986262904095
C           -9.82101972420903       -0.07016909465479       -0.14004190874305
C           -8.87958929624359       -1.08613880011456       -0.03101236625611
C           -7.50635115618071       -0.76535769252244        0.06626363509102
N           -6.77910916605216       -1.92689500205183        0.12844692323963
C           -7.63256411408749       -2.99725106869296        0.07422504842635
C           -7.34984247327832       -4.35454495124967        0.10026673311178
C           -8.41367441946585       -5.23349867815105        0.03557888105202
C           -9.72746404190820       -4.77648313955343       -0.05233305357252
C          -10.01442591451503       -3.42575811617577       -0.07928175743269
C           -8.96261478153265       -2.52127716908952       -0.01574804222507
C           -4.83745093057255        0.20860460139959        1.10038434415316
C           -3.47032298525723        0.36369921498596        1.10920899157687
C           -0.67376641117972        2.40429381132350        0.03956911096447
C           -1.41151563931039        3.68225356304434        0.09529785429996
C           -2.23804154965363        3.98220355198786        1.17734155190947
C           -2.89554617837728        5.19718430940206        1.19111338063113
C           -2.71538683319554        6.07095551519008        0.12880317300219
C           -1.88088879005807        5.67529149306686       -0.90347581802338
N           -1.25001867678393        4.51684348754472       -0.92593267794634
C            0.71013273803161        2.42463737346400       -0.04207193846903
C            1.37892604343123        3.73034938388717       -0.12539243560207
C            2.26396204086866        4.02193674251771       -1.16659246762507
C            2.82166997779365        5.28296826614181       -1.23169195921302
C            2.48761194508421        6.21849744274045       -0.26164238935968
C            1.60255594471377        5.83342815898987        0.73202572047366
N            1.06572906577663        4.63146307575444        0.80355890039643
C            1.44514933075888        1.21276119806403       -0.12451878134426
C            2.87424721919771        1.20137492984056       -0.19589425119886
C            3.68657164204215        2.05030796145647        0.61086209064616
C            5.03255608281914        1.88040606127123        0.68780379247822
C            5.69600677271329        0.83731196025333       -0.02702153906092
C            7.05215244139417        0.49661372709450        0.20911155146063
C            8.03299277940511        1.44015458048990        0.62784715192712
C            9.35673283543766        1.10406430069698        0.78002926560534
C            9.81855819522414       -0.19822578181752        0.57372345987895
C            8.88568956565499       -1.17334958765661        0.22273859790252
C            7.52992904527525       -0.83004765296229        0.05087720843740
N            6.81230538398564       -1.97073168566700       -0.18606999865674
C            7.65334375179688       -3.04989908107071       -0.19804744556962
C            7.36901738536899       -4.39189322750264       -0.40191048333013
C            8.42481697707788       -5.28187530507349       -0.36748772102425
C            9.73061149352012       -4.84679879157471       -0.13436880330068
C           10.01854872554340       -3.51194773395398        0.07289275702764
C            8.97534786282956       -2.59488153046828        0.04144730142573
C            4.90404099897786        0.11998983990832       -0.97512811820755
C            3.56151591412452        0.29010991560464       -1.05045254331879
C            2.44598338578844       -1.54154981014905        0.83911873979243
C            3.15633336372687       -2.72689167126670        0.83118574638764
H            3.45200430431845       -4.61461557810113       -0.13954380145242
H            1.70343044954269       -4.20647596539592       -1.83246750469416
H            0.44663326392924       -2.09505868786627       -1.82694065103069
H           -2.56590912062698       -0.83077022735104       -1.73172344646913
H           -3.86841394196424       -2.91450497115133       -1.66658003728553
H           -3.44614782180220       -4.58263305191581        0.10773477202190
H           -1.70402257310969       -4.15453277861883        1.80059165112417
H           -0.41197563565298       -2.06343806066811        1.74265210134709
H           -3.15376947192770        2.49425888410330       -1.49412590108692
H           -5.59533215760140        2.22546860961223       -1.50014341523303
H           -7.71059261378301        2.57947900785907       -0.10513750556743
H          -10.09258299545342        2.04313687147850       -0.25908420486374
H          -10.87316664859785       -0.30122085446856       -0.20744867218478
H           -5.77373348540367       -1.97828769384124        0.15115496920862
H           -6.33163798076484       -4.70806490662035        0.16894726815642
H           -8.22537789832156       -6.29695652339182        0.05316165193053
H          -10.53177951138641       -5.49555253704609       -0.10030911091746
H          -11.03395406305108       -3.07723607283604       -0.14793149404009
H           -5.31360573268150       -0.40109674618869        1.85573399455066
H           -2.87869282540223       -0.13325496819274        1.86391696806554
H           -2.34386752322988        3.27871703216568        1.98839360034671
H           -3.53852632401230        5.46268287522610        2.01835700224548
H           -3.20908585018585        7.03004375436549        0.10206868119759
H           -1.70746455505723        6.31284452854884       -1.76168424571346
H            2.48421053066588        3.27407307131897       -1.91254263558957
H            3.50431841499532        5.53912009203117       -2.02952912876557
H            2.90197191201798        7.21450820561771       -0.27670300906881
H            1.30826596388061        6.51800996284530        1.51815618807812
H            3.20279740425845        2.77990433206840        1.24262473005706
H            5.60538561919541        2.48147506639853        1.37729497438203
H            7.72786137833141        2.46470408354032        0.77246745303650
H           10.06334739835003        1.87014489923478        1.06515997410912
H           10.85868275659563       -0.44762065155897        0.70768473288736
H            5.80781610399719       -2.01558193699940       -0.25848760153068
H            6.35748540168375       -4.72400375332771       -0.58305536935208
H            8.23955958969878       -6.33405470086428       -0.52369438491725
H           10.52876741435741       -5.57403662323600       -0.11613174095644
H           11.03134115847640       -3.18553790168848        0.25416916731606
H            5.40491778422585       -0.50857681025303       -1.69827658916032
H            2.99571205522879       -0.22729810045324       -1.81112482656211
H            2.64362438041410       -0.79977341832590        1.59963912267061
H            3.91301521377982       -2.90377545046429        1.58324755735180
