110
 energy: -170.125134096287 gnorm: 0.000036008999 xtb: 6.7.1 (edcfbbe)
C            2.91297184359878       -3.67886564483651       -0.15142325738656
C            1.93044053507651       -3.45256564810076       -1.10148405931158
C            1.21304006348819       -2.27138232591280       -1.09438254894617
C            1.47060239019170       -1.29193585137051       -0.13764206131144
C            0.72540465824848       -0.01862151968133       -0.12999328839165
C           -0.65582587851059       -0.03295108833842       -0.03334209854437
C           -1.39676372840250       -1.31265050895047       -0.01352061139314
C           -2.37559964598160       -1.56949455713031       -0.97019215308488
C           -3.10172593784764       -2.74523534298190       -0.93520668974308
C           -2.85863447100018       -3.68371325398831        0.05427232393045
C           -1.87908871308093       -3.44242111979373        1.00280605433092
C           -1.15310776750850       -2.26630279696460        0.97026907080838
C           -1.38070077609122        1.17716591306885        0.05064043589006
C           -2.84088501380598        1.13815335180730        0.14178210586551
C           -3.64031476715920        1.84031744465235       -0.76233216617794
C           -5.00980184439213        1.68145583358428       -0.76146062344485
C           -5.62586366234191        0.81557045116983        0.14102983696165
C           -7.05962970162585        0.52274108246302        0.05898498445374
C           -8.02977595527605        1.50904142947154       -0.07209352770996
C           -9.38382151584707        1.19967500878474       -0.14627984607840
C           -9.82492164047794       -0.10976558177437       -0.11070829450969
C           -8.88114591778357       -1.12385072519491       -0.00460183882540
C           -7.50782694607759       -0.80065095363516        0.08324146638965
N           -6.77842804853844       -1.96089314140078        0.14432432485026
C           -7.63060831815642       -3.03272580313292        0.09968454962123
C           -7.34580926045271       -4.38950143583419        0.13000516069731
C           -8.40883081936300       -5.27020834118184        0.07668842904955
C           -9.72382314047971       -4.81542820162861       -0.00459572988516
C          -10.01283786825078       -3.46524239922298       -0.03608365114889
C           -8.96190549080196       -2.55903963490805        0.01638027944016
C           -4.83468210037784        0.18101691267631        1.10035310941524
C           -3.46817793261540        0.34174742066967        1.10304897770208
C           -0.68615771588821        2.39647826077597        0.02540911501191
C           -1.43121891659373        3.67029746948146        0.08087341792005
C           -2.25669350884337        3.96718338239651        1.16457805229935
C           -2.92293069360863        5.17741498603727        1.17706576285230
C           -2.75194186165048        6.04972335166507        0.11205319357368
C           -1.91723716072466        5.65752872581438       -0.92137924880285
N           -1.27834280627986        4.50345897606803       -0.94280375835749
C            0.69756372429419        2.42395052203880       -0.05735013785643
C            1.35952531273277        3.73271156673593       -0.14439421247217
C            2.24505774469675        4.02438721640647       -1.18524857403817
C            2.79588594668561        5.28812630206632       -1.25531212185758
C            2.45478805630164        6.22638197978563       -0.29031888338032
C            1.57008311975179        5.84103062365059        0.70355526955531
N            1.03972922547952        4.63649097677733        0.77977412919264
C            1.43907643175686        1.21566315879239       -0.13836788733762
C            2.86841161892133        1.21263529312170       -0.20428434751596
C            3.67126517531341        2.06774168316510        0.60552104632135
C            5.01795681105718        1.90716709732751        0.68893408803380
C            5.69200751566492        0.86829548037053       -0.02208653494283
C            7.04985659639119        0.53856059988350        0.22011225322340
C            8.02083836763564        1.49055855114229        0.64254784820494
C            9.34659718355652        1.16570285662666        0.80148680971289
C            9.82015411457261       -0.13289466327071        0.59887281970675
C            8.89707162220611       -1.11602607963443        0.24449048504864
C            7.53937821025489       -0.78417704690840        0.06534448058686
N            6.83255232759112       -1.93106861211822       -0.17413717973151
C            7.68258842192247       -3.00324395774416       -0.18039146653345
C            7.41051426190183       -4.34784654599101       -0.38378341612801
C            8.47343175652054       -5.22900789995863       -0.34208939065542
C            9.77426371908273       -4.78283569639265       -0.10233640800316
C           10.05001142897222       -3.44532229704796        0.10429874564349
C            8.99945960948490       -2.53698058297574        0.06554010063610
C            4.90929278689034        0.14438462726732       -0.97278561392694
C            3.56590657312331        0.30511809634705       -1.05455542593684
C            2.45142023257869       -1.53628796999255        0.82333380520079
C            3.16687042812092       -2.71855896763337        0.81450855263298
H            3.47246966112320       -4.60313083683349       -0.15925394048099
H            1.72528634172792       -4.19940980468831       -1.85457110212978
H            0.45919802154584       -2.09343931421043       -1.84734569938396
H           -2.56458208879564       -0.84168506290789       -1.74616253440724
H           -3.85887206331310       -2.93055898902519       -1.68461499448775
H           -3.42663190071612       -4.60232062809874        0.08374951895698
H           -1.68328177193504       -4.17212083326897        1.77496463113501
H           -0.40017337675568       -2.07552675440578        1.72130594661895
H           -3.17185528530633        2.47262283896018       -1.50240710300043
H           -5.61226744146366        2.19342409052539       -1.49779954817607
H           -7.71885161558748        2.54344844935944       -0.09363134668325
H          -10.10074756533811        2.00281932098634       -0.23305317799948
H          -10.87705861016899       -0.34274463244781       -0.17121956391627
H           -5.77286874950777       -2.01064688034023        0.16112299332193
H           -6.32668347611940       -4.74131889531132        0.19369239843689
H           -8.21895325390013       -6.33331081964655        0.09835998350885
H          -10.52744546880467       -5.53581942819521       -0.04357108086571
H          -11.03328452166301       -3.11843209109575       -0.09959371831769
H           -5.30492598084832       -0.43024934873875        1.85813809575816
H           -2.87110975742345       -0.15263472944606        1.85517569545511
H           -2.35532973951160        3.26499147610400        1.97765779041615
H           -3.56573951124532        5.44029980358730        2.00527988356081
H           -3.25280455456433        7.00505905391479        0.08410522014356
H           -1.75055444675027        6.29423987755040       -1.78154244497788
H            2.47075964130368        3.27430832734257       -1.92734207596902
H            3.47854318060969        5.54428127322241       -2.05314159117095
H            2.86359865984682        7.22461329273659       -0.30938473537575
H            1.27070165516611        6.52763380208907        1.48599384733654
H            3.17956707674968        2.79446378443863        1.23446336031061
H            5.58326176634023        2.51264160981454        1.38075359124560
H            7.70659355166997        2.51268193640716        0.78474672878324
H           10.04537294330474        1.93795307268910        1.08926679211397
H           10.86164407820861       -0.37356562238326        0.73806114357643
H            5.82891514038668       -1.98425872759559       -0.25213284026846
H            6.40277701571443       -4.68865381395995       -0.56989142587548
H            8.29772809275519       -6.28292936541819       -0.49759050803998
H           10.57825874348737       -5.50344539689701       -0.07832060206751
H           11.05903394526189       -3.11024637306387        0.29072066353811
H            5.41771880176353       -0.48159530718155       -1.69290415704540
H            3.00736310278115       -0.21698339607515       -1.81737903737490
H            2.64426491440395       -0.79508277601140        1.58564753467440
H            3.92283669670896       -2.89361973204216        1.56772678759289
