110
 energy: -170.219526239673 gnorm: 0.000064800105 xtb: 6.7.1 (edcfbbe)
C            2.92138218568233       -3.59429502749480       -0.21246279100823
C            1.94979663325572       -3.32781373202179       -1.16221048463591
C            1.21785694534660       -2.15641244616633       -1.09916136176376
C            1.44935703057872       -1.23370045917526       -0.08415174927484
C            0.70048969607609        0.04043283011522       -0.04084812410866
C           -0.69402783544507        0.03827404093333        0.01684481380038
C           -1.43961409647382       -1.23832662659521        0.03630663193952
C           -2.40720474814187       -1.50546969693743       -0.92821480644436
C           -3.13584664571185       -2.67950879788063       -0.88528651101252
C           -2.90460792939449       -3.60529662537119        0.11873873733396
C           -1.93363086237273       -3.35452406603679        1.07338712348281
C           -1.20513043501681       -2.17998233374638        1.03307144491478
C           -1.39391482957098        1.25024510055379        0.06319737018101
C           -2.86755654659809        1.22658461949922        0.10684029758689
C           -3.61878055975862        1.85753529046045       -0.87986867175219
C           -4.99217279422426        1.71660518215965       -0.91201313318100
C           -5.64621011867333        0.93805806625148        0.03836807918025
C           -7.08624550064715        0.66544506475694       -0.06306563911678
C           -8.03272337876200        1.66155505709315       -0.25918569770305
C           -9.39120607525252        1.37292784955302       -0.35153172969724
C           -9.85597978841107        0.07509589519627       -0.26753143041214
C           -8.93382039937682       -0.94964926306376       -0.09280701122975
C           -7.55703270425325       -0.64670454085576        0.01167430625783
N           -6.85066159721153       -1.81505038298509        0.14913430828656
C           -7.72251769110453       -2.87260520113404        0.13708086167820
C           -7.46515795404162       -4.23086525729335        0.24328125778588
C           -8.54355156839293       -5.09364375916881        0.20857401060728
C           -9.84726013201078       -4.62010124895125        0.07196531143497
C          -10.10890917720369       -3.26858445226977       -0.03494406386139
C           -9.04181680212875       -2.38004072369867       -0.00288131059532
C           -4.89869537505284        0.36921618908753        1.06796694879571
C           -3.52818266960427        0.51414614829781        1.10357938588038
C           -0.69698258852615        2.45714279534310        0.04216871027877
C           -1.41291249768153        3.74686687553892        0.07540742392613
C           -2.31239741012479        4.04666782096755        1.09668511298339
C           -2.93884772695663        5.27875166692702        1.08542339030742
C           -2.65348276880024        6.16714810820285        0.05966816696891
C           -1.74693303542642        5.77133242426152       -0.91060691023978
N           -1.14352609540826        4.59805396846432       -0.90913982267286
C            0.69741571841889        2.45940541007424       -0.02335790634690
C            1.41132447387275        3.75055001483730       -0.03308627767963
C            2.31734913956673        4.06669863588939       -1.04366518680200
C            2.94432731588759        5.29805763568646       -1.00823407703913
C            2.65224304537253        6.17003726297025        0.02963607374134
C            1.73838430375266        5.75937756442103        0.98681254143927
N            1.13505481539082        4.58632798184273        0.96270555591522
C            1.39733151503599        1.25474802553129       -0.06442176986855
C            2.87116491925552        1.23568318782210       -0.10276295421100
C            3.61566194165859        1.84881384817566        0.90018985101838
C            4.98902282965938        1.70919854551108        0.93772985730143
C            5.64936116697415        0.94955296981018       -0.02343775594301
C            7.08812479484555        0.67233625220018        0.08382131665198
C            8.03678973553953        1.66177162361492        0.30117425811990
C            9.39333832476832        1.36599766249310        0.40007580406831
C            9.85343390926265        0.06745924254472        0.30215773459329
C            8.92857371071847       -0.95105405833435        0.10623941313265
C            7.55408809408930       -0.64057498165448       -0.00536163865477
N            6.84349240489438       -1.80360719234634       -0.16396983882819
C            7.71038258977371       -2.86521050969858       -0.15850517360083
C            7.44748039314409       -4.22076182140969       -0.28377708026336
C            8.52142004877131       -5.08911137395135       -0.25082303689801
C            9.82614959968321       -4.62353862118308       -0.09757192053799
C           10.09330767766509       -3.27473299909551        0.02834187916684
C            9.03075767258162       -2.38068097516890       -0.00136845384615
C            4.90893884809333        0.40028407147636       -1.06864542175074
C            3.53845046243695        0.54412097658650       -1.10965118636080
C            2.41734683903382       -1.51694481654429        0.87537855677787
C            3.14955892970274       -2.68772848176932        0.80965051749137
H            3.49439787876273       -4.50858850936091       -0.26550420427590
H            1.76407393865187       -4.03383907259628       -1.95833119876752
H            0.46996760241967       -1.94546845979471       -1.84973637037252
H           -2.58575778562408       -0.78864379866599       -1.71656472461900
H           -3.88549084976516       -2.87333055749703       -1.63978070080000
H           -3.47496452817552       -4.52211458855420        0.15391375044374
H           -1.74568214828546       -4.07536896545389        1.85559089376253
H           -0.45771853562966       -1.98151827763806        1.78752125772541
H           -3.11465009320474        2.42980942544082       -1.64544965064250
H           -5.56464465259323        2.17873147289892       -1.70308708925821
H           -7.70176915397090        2.68822901343770       -0.32070845796550
H          -10.09055941072800        2.18389838646574       -0.49187111548101
H          -10.91054022425777       -0.14263230152636       -0.34180680706267
H           -5.84730634269983       -1.88201003305382        0.19459878884893
H           -6.45488469019830       -4.59775387270392        0.35017759940970
H           -8.37479304075194       -6.15752924083413        0.28904509828239
H          -10.66349252202304       -5.32691648782921        0.04988741617024
H          -11.12054966384973       -2.90657898720901       -0.14080748317513
H           -5.40163426525156       -0.18427141315129        1.84855622578830
H           -2.95874703553918        0.06244557137682        1.90297236204071
H           -2.49826624006065        3.33262180246337        1.88367368171720
H           -3.63724764553139        5.54525000609315        1.86603135162203
H           -3.11947354293311        7.13934319667227        0.01512664894366
H           -1.48779634673275        6.42314426427701       -1.73583812874774
H            2.50827927209580        3.36552871094991       -1.84094445895845
H            3.64845662158802        5.57652966143746       -1.77946231184070
H            3.11868030386727        7.14095534521303        0.09324707435631
H            1.47317104828196        6.39830249869568        1.82014803013771
H            3.10605847497497        2.40521817545363        1.67381276782217
H            5.55632252194792        2.15651978049106        1.74094972934239
H            7.70945879064599        2.68881692876382        0.37479308333658
H           10.09493578438077        2.17195906277291        0.55710108094983
H           10.90647238715028       -0.15559541425011        0.38203449010389
H            5.84026208605724       -1.86514703258233       -0.21956708064721
H            6.43637207778800       -4.58128226412721       -0.40352695181841
H            8.34828702887240       -6.15109601853055       -0.34577919305417
H           10.63880782711037       -5.33450951580946       -0.07745940778111
H           11.10573346190161       -2.91899745915921        0.14713175340621
H            5.41745515405116       -0.13776949942116       -1.85638605738919
H            2.97422273195727        0.10714697909254       -1.92084413585284
H            2.59355340550500       -0.81528072576683        1.67777140092531
H            3.89938594676610       -2.89419621968105        1.56064591748148
