  66
        -96.35052239
 C          1.1454496842       -3.9512499985        2.3799096699
 C          0.6398606270       -2.7828297528        2.9250316250
 C          0.7127869600       -1.5946826266        2.2199289617
 C          1.3150018917       -1.5660818199        0.9676868121
 P          1.2722450956       -0.1185939314       -0.1266604839
 C          3.0594808747        0.0802595918       -0.5477679474
 C          4.1283434961       -0.5433421002        0.0825666013
 C          5.4240920086       -0.2585581000       -0.3115046365
 C          5.6642243705        0.6485147515       -1.3297352340
 C          4.6022631299        1.2745429532       -1.9625204575
 C          3.3081289562        0.9867938726       -1.5746032834
 C          1.2065810480        1.3160695509        1.0019471050
 C          1.9806455002        1.3731407416        2.1534621941
 C          1.9272506378        2.4804397405        2.9793631607
 C          1.1080568832        3.5474696173        2.6469276975
 C          0.3616431224        3.5127842348        1.4836473891
 C          0.4002033045        2.4027493127        0.6438858333
 C         -0.3737740866        2.4126775876       -0.6094965550
 C         -0.3191647267        3.5299443029       -1.4387212677
 C         -1.0575249472        3.5827019012       -2.6064373740
 C         -1.8841208811        2.5263709612       -2.9541318401
 C         -1.9543442600        1.4125021850       -2.1382280367
 C         -1.1892008936        1.3373106063       -0.9818288020
 P         -1.2772300351       -0.1061771862        0.1347439351
 C         -3.0693950436        0.0971081083        0.5347756393
 C         -4.1303186029       -0.5062223161       -0.1287115370
 C         -5.4313717756       -0.2242744078        0.2485956575
 C         -5.6852315375        0.6593003360        1.2842840659
 C         -4.6317891484        1.2647535681        1.9500587656
 C         -3.3320464006        0.9808213435        1.5775171687
 C         -1.3233174382       -1.5482277186       -0.9675149201
 C         -1.8211834453       -2.7281374804       -0.4199506815
 C         -1.7507549686       -3.9119579205       -1.1282385802
 C         -1.1696120207       -3.9305297477       -2.3861015686
 C         -0.6543191666       -2.7644236141       -2.9269701842
 C         -0.7191604642       -1.5776772435       -2.2185781131
 C          1.8018419423       -2.7483841786        0.4153147419
 C          1.7240156129       -3.9334953348        1.1208336604
 H          1.0814063480       -4.8775174476        2.9323214368
 H          0.1775878346       -2.7986074177        3.9018391547
 H          0.3038309914       -0.6867614452        2.6428206166
 H          3.9515819475       -1.2539376169        0.8779953451
 H          6.2525367347       -0.7457581966        0.1825997904
 H          6.6784510465        0.8668663897       -1.6312902285
 H          4.7863833258        1.9826726916       -2.7581572680
 H          2.4670683784        1.4660066128       -2.0623048551
 H          2.6274842822        0.5415159230        2.3976338169
 H          2.5242217597        2.5134896317        3.8791736734
 H          1.0578971978        4.4127171681        3.2919128683
 H         -0.2741663672        4.3480565898        1.2252005987
 H          0.3235070311        4.3562476518       -1.1685964321
 H         -0.9945339890        4.4532883934       -3.2430889320
 H         -2.4738715549        2.5727489822       -3.8580989937
 H         -2.6075503950        0.5896992712       -2.3947570651
 H         -3.9429079289       -1.1996205462       -0.9369448290
 H         -6.2532563594       -0.6962033778       -0.2712891238
 H         -6.7037118258        0.8743463134        1.5734211740
 H         -4.8264388585        1.9527814877        2.7604198064
 H         -2.4978888315        1.4435617806        2.0922198796
 H         -2.2591437788       -2.7060307501        0.5701539198
 H         -2.1405707452       -4.8230600602       -0.6974034869
 H         -1.1114668616       -4.8557305555       -2.9409713426
 H         -0.1909821651       -2.7809162528       -3.9032860257
 H         -0.3028839578       -0.6715263560       -2.6383868296
 H          2.2366893314       -2.7272660320       -0.5761154087
 H          2.1061410978       -4.8462522127        0.6869437579
