  66
  -96.3505223900000       0.447512974090101      !
 C          1.1454496842       -3.9512499985        2.3799096699
 C          0.6398606270       -2.7828297528        2.9250316250
 C          0.7127869600       -1.5946826266        2.2199289617
 C          1.3150018917       -1.5660818199        0.9676868121
 P          1.2722450956       -0.1185939314       -0.1266604839
 C          3.0594808747        0.0802595918       -0.5477679474
 C          4.1283434961       -0.5433421002        0.0825666013
 C          5.4240920086       -0.2585581000       -0.3115046365
 C          5.6642243705        0.6485147515       -1.3297352340
 C          4.6022631299        1.2745429532       -1.9625204575
 C          3.3081289562        0.9867938726       -1.5746032834
 C          1.2065810480        1.3160695509        1.0019471050
 C          1.9806455002        1.3731407416        2.1534621941
 C          1.9272506378        2.4804397405        2.9793631607
 C          1.1080568832        3.5474696173        2.6469276975
 C          0.3616431224        3.5127842348        1.4836473891
 C          0.4002033045        2.4027493127        0.6438858333
 C         -0.3737740866        2.4126775876       -0.6094965550
 C         -0.3191647267        3.5299443029       -1.4387212677
 C         -1.0575249472        3.5827019012       -2.6064373740
 C         -1.8841208811        2.5263709612       -2.9541318401
 C         -1.9543442600        1.4125021850       -2.1382280367
 C         -1.1892008936        1.3373106063       -0.9818288020
 P         -1.2772300351       -0.1061771862        0.1347439351
 C         -3.0693950436        0.0971081083        0.5347756393
 C         -4.1303186029       -0.5062223161       -0.1287115370
 C         -5.4313717756       -0.2242744078        0.2485956575
 C         -5.6852315375        0.6593003360        1.2842840659
 C         -4.6317891484        1.2647535681        1.9500587656
 C         -3.3320464006        0.9808213435        1.5775171687
 C         -1.3233174382       -1.5482277186       -0.9675149201
 C         -1.8211834453       -2.7281374804       -0.4199506815
 C         -1.7507549686       -3.9119579205       -1.1282385802
 C         -1.1696120207       -3.9305297477       -2.3861015686
 C         -0.6543191666       -2.7644236141       -2.9269701842
 C         -0.7191604642       -1.5776772435       -2.2185781131
 C          1.8018419423       -2.7483841786        0.4153147419
 C          1.7240156129       -3.9334953348        1.1208336604
 H          1.0814063480       -4.8775174476        2.9323214368
 H          0.1775878346       -2.7986074177        3.9018391547
 H          0.3038309914       -0.6867614452        2.6428206166
 H          3.9515819475       -1.2539376169        0.8779953451
 H          6.2525367347       -0.7457581966        0.1825997904
 H          6.6784510465        0.8668663897       -1.6312902285
 H          4.7863833258        1.9826726916       -2.7581572680
 H          2.4670683784        1.4660066128       -2.0623048551
 H          2.6274842822        0.5415159230        2.3976338169
 H          2.5242217597        2.5134896317        3.8791736734
 H          1.0578971978        4.4127171681        3.2919128683
 H         -0.2741663672        4.3480565898        1.2252005987
 H          0.3235070311        4.3562476518       -1.1685964321
 H         -0.9945339890        4.4532883934       -3.2430889320
 H         -2.4738715549        2.5727489822       -3.8580989937
 H         -2.6075503950        0.5896992712       -2.3947570651
 H         -3.9429079289       -1.1996205462       -0.9369448290
 H         -6.2532563594       -0.6962033778       -0.2712891238
 H         -6.7037118258        0.8743463134        1.5734211740
 H         -4.8264388585        1.9527814877        2.7604198064
 H         -2.4978888315        1.4435617806        2.0922198796
 H         -2.2591437788       -2.7060307501        0.5701539198
 H         -2.1405707452       -4.8230600602       -0.6974034869
 H         -1.1114668616       -4.8557305555       -2.9409713426
 H         -0.1909821651       -2.7809162528       -3.9032860257
 H         -0.3028839578       -0.6715263560       -2.6383868296
 H          2.2366893314       -2.7272660320       -0.5761154087
 H          2.1061410978       -4.8462522127        0.6869437579
  66
  -96.3504648700000       0.421086452262890      !
 C          1.1634153246       -3.9522965099        2.3976611668
 C          0.6489364314       -2.7867674804        2.9403744094
 C          0.7152193821       -1.5991929696        2.2338048303
 C          1.3195968634       -1.5681594577        0.9824182238
 P          1.2624330579       -0.1203824796       -0.1097082714
 C          3.0394429837        0.0757057874       -0.5695682634
 C          4.1226650757       -0.5316265576        0.0523784618
 C          5.4088550636       -0.2554025223       -0.3771539329
 C          5.6252280098        0.6272232779       -1.4222149288
 C          4.5489263085        1.2366743699       -2.0464947534
 C          3.2639349922        0.9575695028       -1.6229961287
 C          1.2152288385        1.3097240548        1.0242700357
 C          1.9922816270        1.3584091193        2.1740564942
 C          1.9441770292        2.4624130070        3.0047790125
 C          1.1273355474        3.5334599492        2.6791420915
 C          0.3786006861        3.5071232824        1.5170634237
 C          0.4120715508        2.4007028808        0.6723444327
 C         -0.3622687902        2.4179067529       -0.5809822397
 C         -0.2961500824        3.5352694559       -1.4090560466
 C         -1.0331420557        3.5963954870       -2.5772609207
 C         -1.8707023495        2.5491153359       -2.9257776229
 C         -1.9523323148        1.4352602604       -2.1109469669
 C         -1.1873348104        1.3504286944       -0.9550417284
 P         -1.2891005384       -0.0973862761        0.1554004988
 C         -3.0902172135        0.0988122293        0.5193336835
 C         -4.1328458735       -0.5404294288       -0.1394677531
 C         -5.4436023871       -0.2612197927        0.2058167419
 C         -5.7255245991        0.6556929630        1.2044677266
 C         -4.6904714185        1.2969268246        1.8658051363
 C         -3.3812828479        1.0149536202        1.5262518019
 C         -1.3131910065       -1.5392827829       -0.9492345604
 C         -0.7183488859       -1.5582153721       -2.2048027433
 C         -0.6323787241       -2.7447576405       -2.9111164351
 C         -1.1176467913       -3.9207188933       -2.3638905986
 C         -1.6907422750       -3.9119947172       -1.1022690231
 C         -1.7822150416       -2.7282249408       -0.3960826883
 C          1.8144807964       -2.7479298381        0.4321084306
 C          1.7436921757       -3.9323213476        1.1394516107
 H          1.1056131138       -4.8780568675        2.9515975828
 H          0.1847252688       -2.8043135287        3.9161987903
 H          0.2989573851       -0.6933946917        2.6544935483
 H          3.9639863362       -1.2238944111        0.8676722054
 H          6.2489304731       -0.7313872461        0.1090093745
 H          6.6322551049        0.8379203374       -1.7518107740
 H          4.7140486535        1.9241859886       -2.8638331317
 H          2.4117765676        1.4245963604       -2.1037445067
 H          2.6362836211        0.5232423724        2.4135877326
 H          2.5429992129        2.4893578613        3.9035734614
 H          1.0807419340        4.3953669109        3.3288311754
 H         -0.2549353044        4.3457573606        1.2636055768
 H          0.3543325118        4.3548661588       -1.1371810304
 H         -0.9607190320        4.4666423981       -3.2133460760
 H         -2.4602480689        2.6026343275       -3.8294972535
 H         -2.6146789187        0.6196922979       -2.3675352579
 H         -3.9239895674       -1.2595392111       -0.9195041649
 H         -6.2508605367       -0.7613578336       -0.3107214544
 H         -6.7512379617        0.8698109797        1.4674430758
 H         -4.9070455501        2.0131138303        2.6456189601
 H         -2.5613321962        1.5083386761        2.0358185165
 H         -0.3242245243       -0.6443969589       -2.6293547937
 H         -0.1738726993       -2.7535201629       -3.8899045467
 H         -1.0422886480       -4.8456155456       -2.9169364142
 H         -2.0574318180       -4.8303360153       -0.6668733009
 H         -2.2162919925       -2.7126643181        0.5958692362
 H          2.2507363434       -2.7258092673       -0.5588036362
 H          2.1343033971       -4.8434128089        0.7077848691
  66
  -96.3485844700000       5.757040205820048E-002 !
 C          1.3759258234       -3.8860305771        2.5644092057
 C          0.6080052819       -2.8037802245        2.9597307562
 C          0.6133143377       -1.6374666497        2.2177834724
 C          1.3986410749       -1.5365493146        1.0717159538
 P          1.2413800253       -0.0863810649       -0.0151813762
 C          2.9715478152        0.0635020516       -0.6380212046
 C          3.9668758451        0.8659706714       -0.0954975376
 C          5.2146310096        0.9201295656       -0.6920275115
 C          5.4796668005        0.1832902915       -1.8339444700
 C          4.4849649254       -0.6013673012       -2.3945476933
 C          3.2356728870       -0.6490254872       -1.8062104796
 C          1.1661140930        1.2949768355        1.1701413361
 C          1.8424043399        1.2835521322        2.3842729221
 C          1.7566793637        2.3631949954        3.2444057053
 C          0.9941695832        3.4652170744        2.8926122662
 C          0.3238249665        3.4874584042        1.6834323480
 C          0.3965024243        2.4071123752        0.8081190504
 C         -0.3279097979        2.4638309783       -0.4735700416
 C         -0.2298984533        3.6033360364       -1.2672273318
 C         -0.9424785877        3.7099599167       -2.4472176022
 C         -1.7896357866        2.6870887179       -2.8413438623
 C         -1.9020573501        1.5510357591       -2.0616433220
 C         -1.1604347704        1.4193622443       -0.8948378559
 P         -1.3101434176       -0.0703108835        0.1545266462
 C         -3.1252945173        0.1086717915        0.4614258816
 C         -4.1485810454       -0.5167221728       -0.2393759222
 C         -5.4684010047       -0.2606520129        0.0889200079
 C         -5.7786279540        0.6182388671        1.1130258149
 C         -4.7631169071        1.2458722540        1.8163475447
 C         -3.4454184836        0.9868519497        1.4932203366
 C         -1.2881745371       -1.4591980110       -1.0168901098
 C         -1.7680885825       -2.6768813639       -0.5426873927
 C         -1.6420887234       -3.8228165503       -1.3045680163
 C         -1.0243666925       -3.7643507274       -2.5433355688
 C         -0.5297383505       -2.5588724014       -3.0128049389
 C         -0.6493380245       -1.4106735984       -2.2502862403
 C          2.1636771315       -2.6298072423        0.6779225189
 C          2.1556414284       -3.7938777806        1.4236743437
 H          1.3677710668       -4.7977665874        3.1437343161
 H         -0.0016190704       -2.8686678285        3.8496970983
 H          0.0112051873       -0.7967284023        2.5353575801
 H          3.7711942283        1.4515698675        0.7911212638
 H          5.9859402914        1.5427630637       -0.2614629387
 H          6.4568644513        0.2281505231       -2.2922020678
 H          4.6828418511       -1.1669997122       -3.2940665340
 H          2.4428581465       -1.2410824905       -2.2484936642
 H          2.4336595429        0.4184420334        2.6539339006
 H          2.2830368542        2.3450924931        4.1877704690
 H          0.9207654018        4.3087838713        3.5635489433
 H         -0.2812168647        4.3428181509        1.4172090099
 H          0.4247419870        4.4061980589       -0.9582092204
 H         -0.8453718572        4.5975612102       -3.0553089800
 H         -2.3622279614        2.7761370719       -3.7531189681
 H         -2.5717567445        0.7536058154       -2.3542519767
 H         -3.9176957554       -1.2059146465       -1.0399302831
 H         -6.2608022158       -0.7493909598       -0.4606722838
 H         -6.8113503850        0.8138275193        1.3626665117
 H         -5.0017193572        1.9319249213        2.6163388080
 H         -2.6400613897        1.4675863375        2.0370649265
 H         -2.2352403003       -2.7151197356        0.4333737060
 H         -2.0166957747       -4.7645193267       -0.9297374981
 H         -0.9221382775       -4.6595708635       -3.1394260013
 H         -0.0404606012       -2.5147688828       -3.9758417736
 H         -0.2503031930       -0.4723790911       -2.6136052709
 H          2.7718594228       -2.5680246801       -0.2132645031
 H          2.7574966557       -4.6349547080        1.1103649729
  66
  -96.3485323200000       5.447945845248640E-002 !
 C          0.9516018140       -3.8278706998        2.4859176281
 C          0.4806755605       -2.6211592146        2.9764368713
 C          0.6163683267       -1.4638585853        2.2305549475
 C          1.2476197832       -1.5044821415        0.9927786451
 P          1.3014981689       -0.0891908779       -0.1464548453
 C          3.1195724891        0.0401996281       -0.4628333322
 C          4.1282996462       -0.6238650957        0.2236275376
 C          5.4529075564       -0.4058054353       -0.1122604856
 C          5.7828280661        0.4728109802       -1.1304408645
 C          4.7822204589        1.1385692609       -1.8198687141
 C          3.4594886293        0.9178624865       -1.4886244655
 C          1.2032548086        1.3702982545        0.9502432125
 C          1.9677284635        1.4429976621        2.1079046967
 C          1.8993318753        2.5534768316        2.9279349668
 C          1.0701482498        3.6095260476        2.5859847046
 C          0.3334518869        3.5607283316        1.4174013161
 C          0.3898972012        2.4486319700        0.5810435691
 C         -0.3559834925        2.4631840806       -0.6893597437
 C         -0.2715063237        3.5831607308       -1.5130042983
 C         -0.9620740690        3.6371756650       -2.7093888627
 C         -1.7569419038        2.5719742605       -3.1011611336
 C         -1.8522287418        1.4528904470       -2.2944912902
 C         -1.1562951712        1.3877000457       -1.0927169832
 P         -1.2474076916       -0.0559960833        0.0150374319
 C         -2.9816565903        0.0588573573        0.6354752446
 C         -3.2522752873       -0.7357246893        1.7482675468
 C         -4.5069964939       -0.7366195822        2.3267026169
 C         -5.5009050105        0.0812938492        1.8140086093
 C         -5.2286985628        0.9009160444        0.7316147880
 C         -3.9751717180        0.8957573104        0.1444004900
 C         -1.4117354491       -1.4368392563       -1.1598752793
 C         -2.1781090313       -2.5512997995       -0.8346696562
 C         -2.1823343517       -3.6619607298       -1.6579806796
 C         -1.4147308377       -3.6789201051       -2.8103093827
 C         -0.6451147116       -2.5753873921       -3.1378628762
 C         -0.6371748084       -1.4631109056       -2.3173903273
 C          1.7008485283       -2.7233599797        0.4961927566
 C          1.5590028472       -3.8784413076        1.2416165242
 H          0.8372615191       -4.7300573349        3.0692122314
 H         -0.0028187514       -2.5828508723        3.9426835448
 H          0.2364315997       -0.5245521342        2.6111080596
 H          3.8823835510       -1.3144066894        1.0185998123
 H          6.2335292164       -0.9245249395        0.4263995820
 H          6.8190903576        0.6364346910       -1.3882956201
 H          5.0360045033        1.8235816164       -2.6163234357
 H          2.6654980546        1.4275997026       -2.0226619784
 H          2.6213081006        0.6192297643        2.3611341256
 H          2.4910522123        2.5966621165        3.8307853365
 H          1.0057135141        4.4772601388        3.2262503410
 H         -0.3078207858        4.3888827443        1.1499618369
 H          0.3595582907        4.4093463685       -1.2168179148
 H         -0.8786589258        4.5108341949       -3.3393371984
 H         -2.2997358601        2.6129762963       -4.0344374943
 H         -2.4660635815        0.6149754318       -2.5976284683
 H         -2.4593732788       -1.3521099031        2.1560262977
 H         -4.7096712868       -1.3656829056        3.1819179603
 H         -6.4828168556        0.0877430880        2.2644720767
 H         -5.9989103580        1.5507242052        0.3406441214
 H         -3.7743240098        1.5458879084       -0.6948082283
 H         -2.7781476964       -2.5488428100        0.0640137792
 H         -2.7846768024       -4.5200870880       -1.3963120638
 H         -1.4175255529       -4.5482519099       -3.4514397550
 H         -0.0449591741       -2.5811992987       -4.0366104944
 H         -0.0346230471       -0.6051265633       -2.5835565100
 H          2.1622681756       -2.7549583983       -0.4827988285
 H          1.9136171114       -4.8209423624        0.8498035242
  66
  -96.3475541500000       1.935071313632239E-002 !
 C          1.3730079002       -3.8837275004        2.4707225869
 C          0.6463910086       -2.7724584644        2.8648479742
 C          0.6719296045       -1.6161039089        2.1061919696
 C          1.4423731894       -1.5574289252        0.9503251827
 P          1.4187318609       -0.1363801081       -0.1875262178
 C          3.2331044495        0.2089523475       -0.3455919068
 C          4.2558310152       -0.3040853586        0.4422482802
 C          5.5645777498        0.0850817316        0.2170600474
 C          5.8652851604        0.9872593230       -0.7894722788
 C          4.8508843130        1.5039350592       -1.5790062452
 C          3.5448532928        1.1117328357       -1.3586244000
 C          1.0908531213        1.2748751707        0.9352308793
 C          1.7277182650        1.3697565623        2.1660047478
 C          1.4913020857        2.4469069061        2.9995510867
 C          0.6244924169        3.4508343036        2.5997864542
 C          0.0156772135        3.3841718580        1.3605928417
 C          0.2405634888        2.3028696139        0.5139388154
 C         -0.3766895617        2.2820991817       -0.8222836091
 C         -0.2661312697        3.3929867272       -1.6514969759
 C         -0.8475614827        3.3956815046       -2.9067157690
 C         -1.5579369670        2.2900043991       -3.3434660001
 C         -1.6818636286        1.1799585031       -2.5263804475
 C         -1.0952021301        1.1662666271       -1.2686038671
 P         -1.2056679282       -0.2543295952       -0.1272202727
 C         -2.8061250700        0.0903817064        0.6989685944
 C         -3.2505061711       -0.8824225234        1.5931213642
 C         -4.4002772712       -0.6828387423        2.3307473648
 C         -5.1049953741        0.5046089716        2.2023149308
 C         -4.6521393578        1.4864053632        1.3377749441
 C         -3.5042284764        1.2863402395        0.5904727994
 C         -1.6881946785       -1.5829132052       -1.2823297107
 C         -3.0058565159       -1.9757272948       -1.4981928538
 C         -3.2877072983       -3.0095953297       -2.3732303734
 C         -2.2637788471       -3.6644793343       -3.0369700975
 C         -0.9500214423       -3.2808485745       -2.8231958085
 C         -0.6640313562       -2.2486209304       -1.9501888065
 C          2.1512988073       -2.6860785159        0.5471753993
 C          2.1230323311       -3.8403677572        1.3066922600
 H          1.3503515313       -4.7845785032        3.0666060653
 H          0.0529693157       -2.8071910443        3.7676201757
 H          0.0970197632       -0.7530195004        2.4167659281
 H          4.0361655236       -1.0109325824        1.2303472930
 H          6.3557803349       -0.3189510817        0.8330800245
 H          6.8896031477        1.2855372654       -0.9596370374
 H          5.0812543609        2.2068631156       -2.3668456382
 H          2.7411470048        1.5031926574       -1.9718624762
 H          2.4141012003        0.5913132954        2.4693536736
 H          1.9844545170        2.5051018807        3.9590126722
 H          0.4312040659        4.2913798702        3.2502834930
 H         -0.6536767010        4.1716308714        1.0432481577
 H          0.2964524215        4.2512541721       -1.3114125426
 H         -0.7469509238        4.2620757307       -3.5441807521
 H         -2.0169866145        2.2919088741       -4.3213596058
 H         -2.2396389539        0.3185956241       -2.8658957193
 H         -2.6841706553       -1.8009577108        1.6893756232
 H         -4.7473582725       -1.4475673103        3.0108425229
 H         -6.0033492153        0.6650615451        2.7800673039
 H         -5.1969224564        2.4151198118        1.2435576908
 H         -3.1571844814        2.0564439808       -0.0843400924
 H         -3.8129979929       -1.4715785836       -0.9856079265
 H         -4.3143182070       -3.3040516224       -2.5386537746
 H         -2.4894432444       -4.4716460131       -3.7184890579
 H         -0.1469946889       -3.7891188256       -3.3372068880
 H          0.3618956045       -1.9492386224       -1.7825132388
 H          2.7288617144       -2.6498643281       -0.3683904061
 H          2.6810788371       -4.7095348317        0.9889583707
