94
 energy: -139.234676167580 gnorm: 0.000052980158 xtb: 6.7.1 (edcfbbe)
C            5.82791307534576        0.59840059506327       -0.52090702670742
C            5.54633925290241       -0.77291054730619        0.12070517584582
C            6.85130332885667       -1.40523202599215        0.63741667561039
C            4.93941546875536       -1.67477344633563       -0.93725620524561
C            5.70232906799389       -2.02392450734072       -2.04401184462717
C            5.19646586679591       -2.79257313438005       -3.07486641243409
C            3.87965234025216       -3.21011558000142       -3.01844627969729
C            3.09972325706278       -2.87601439378579       -1.93149451392445
C            3.61632743154794       -2.12537439166337       -0.87223596984018
N            2.81709790853475       -1.82658135781758        0.22755161275506
C            1.41220822332540       -1.88753533384288        0.11318343980532
C            0.70078582810382       -3.06299801903468        0.06514292683884
C           -0.69521556070315       -3.06437416253636       -0.07569329665250
C           -1.40932851737632       -1.89033980301639       -0.11885857009053
N           -2.81439269539062       -1.83161932453316       -0.23202718206453
C           -3.61220894361644       -2.13582173428425        0.86744510389390
C           -3.09518431442540       -2.89449586444689        1.92075061716040
C           -3.87372887790094       -3.23409142069627        3.00698062832658
C           -5.18949380856434       -2.81397749583596        3.06874576938612
C           -5.69564261900292       -2.03743517467209        2.04399354226765
C           -4.93420959508023       -1.68289607425104        0.93790722816229
C           -5.54106181086990       -0.77243745765566       -0.11272779899033
C           -6.85030255471392       -1.39617945557135       -0.62898444865756
C           -5.81474337114212        0.59614858812838        0.53806759031532
C           -4.60576200661791       -0.56463136501372       -1.28548187410445
C           -5.02301906142078        0.18657150901722       -2.37686972824778
C           -4.21376082455598        0.39034762364187       -3.47870311530627
C           -2.95945558255680       -0.19359266075561       -3.51469511734527
C           -2.52093134851211       -0.93746426640798       -2.44076709970006
C           -3.31664424132011       -1.09900543195774       -1.30223357856799
C           -0.70627136713382       -0.65977361666843       -0.03804233956853
N           -1.38201323856694        0.49828670092939        0.01423835173422
C           -0.71723300332409        1.62774585929437        0.05411037033582
C           -1.52882390509249        2.83688192842896        0.22340420729734
C           -2.75996871149922        2.91089150812046       -0.42589312251982
C           -3.55993080962692        4.02668731453817       -0.27135830321062
C           -3.14698251679670        5.07135128369486        0.53974617029734
C           -1.93382290730406        4.99234352020747        1.20473144525912
C           -1.12517916421107        3.88212710842680        1.05073413711415
C            0.71213025073072        1.62955788450926       -0.04894033449738
C            1.52085949383523        2.84104255496143       -0.21478570927719
C            1.11371771039653        3.88900616643134       -1.03695151550171
C            1.91981820150328        5.00156279959443       -1.18743932928941
C            3.13395368600887        5.08016542457687       -0.52420875305909
C            3.55051758753580        4.03276088268352        0.28152887730793
C            2.75305041237877        2.91473674449324        0.43263031375869
N            1.37955557109659        0.50151294100190       -0.01222059172613
C            0.70649831504976       -0.65825254122174        0.03639072332424
C            3.31783207455656       -1.10027760232187        1.30264266046028
C            2.51974176735338       -0.94271283874287        2.44007478610944
C            2.95721282648445       -0.20509094259739        3.51874242039659
C            4.21279523799027        0.37638637572213        3.48875002756898
C            5.02430690631121        0.17633132463750        2.38790324363256
C            4.60811490142832       -0.56844314968872        1.29173587514921
H            4.89496622436452        1.04385980569871       -0.86193449668702
H            6.49422188250000        0.49751037261669       -1.37371185918451
H            6.28804096795776        1.27232986781885        0.19717210389330
H            7.57020508590563       -1.53349578214506       -0.16649532577112
H            6.64186887116282       -2.38148727726146        1.07074022234482
H            7.31069426511381       -0.78354818697331        1.40046332350977
H            6.72230633662294       -1.67782252906169       -2.11506106342154
H            5.81957667053874       -3.04893583050316       -3.91810430062762
H            3.45426852889814       -3.79400599829381       -3.82124289614595
H            2.06871869260349       -3.19145092605400       -1.91269685659385
H            1.22341151608675       -4.00567072017331        0.13360963944741
H           -1.21549953598704       -4.00802937446271       -0.14821760486355
H           -2.06487554849156       -3.21188553782756        1.89797272271425
H           -3.44808940529293       -3.82416985129281        3.80509751378529
H           -5.81149317065587       -3.07446328126099        3.91154343209452
H           -6.71458470467606       -1.68925385133255        2.11952717522957
H           -7.56673703663018       -1.52748489652564        0.17661362735186
H           -7.31026378112797       -0.76732857725096       -1.38577425805056
H           -6.64616266438814       -2.37007411714481       -1.07006732243534
H           -6.27456139709633        1.27624300052187       -0.17438140703256
H           -4.87879020837610        1.03578499334722        0.87842367610791
H           -6.47847433307704        0.49278171798950        1.39260073948293
H           -6.00468374388718        0.63608694050885       -2.36867496230971
H           -4.56405657645099        0.98859215199313       -4.30628541540599
H           -2.32260940214250       -0.07192604729393       -4.37845007205454
H           -1.54568430957740       -1.40067933354774       -2.47766299568811
H           -3.06980210413418        2.08834487022571       -1.05305336452200
H           -4.50933783715853        4.08103399963018       -0.78325366734059
H           -3.77218751985250        5.94383386716314        0.65972680378355
H           -1.61722007009528        5.79902679382724        1.84939686634968
H           -0.18853261596993        3.81620042679889        1.58492286803594
H            0.17643301040088        3.82348376138546       -1.57005972722180
H            1.60044259540478        5.81040376277143       -1.82802350822552
H            3.75712491873716        5.95448245117963       -0.64138271707112
H            4.50074493699914        4.08677313722466        0.79193166225215
H            3.06556132805565        2.09002050711336        1.05562324232873
H            1.54355499273081       -1.40424757020676        2.47256452864096
H            2.31854877150980       -0.08652460846254        4.38158501597991
H            4.56237571557074        0.96963497611206        4.32021202284099
H            6.00709762182270        0.62346166699052        2.38450429122510
