94
 energy: -139.189704204333 gnorm: 0.000097674991 xtb: 6.7.1 (edcfbbe)
C            5.81403018993302        0.61142078693831       -0.50629809029814
C            5.53022868370284       -0.77392066234133        0.10495989353035
C            6.83710940565208       -1.42800727545564        0.58950721866984
C            4.90338739706247       -1.64358874152423       -0.96593979229323
C            5.64401436295520       -1.96632041225450       -2.09562831810260
C            5.11416881491795       -2.70681253495466       -3.13499300223500
C            3.79568549601845       -3.12126868271955       -3.06500750401079
C            3.03761172407673       -2.81244237912212       -1.95671741967320
C            3.57931325675233       -2.09264539530983       -0.88629374325915
N            2.80398933709839       -1.83756849648692        0.23760353999461
C            1.39274430032677       -1.89973197472356        0.14038540320356
C            0.68766663484385       -3.10135415677071        0.07372596122124
C           -0.68481036386656       -3.10165976353945       -0.07950447451832
C           -1.39086696153559       -1.90038893705943       -0.14213588535908
N           -2.80216530156089       -1.83906689244735       -0.23923511733143
C           -3.57737993260514       -2.09865566441869        0.88371427054697
C           -3.03515477952055       -2.82162288787838        1.95172974863181
C           -3.79308720038026       -3.13493112968248        3.05886164394114
C           -5.11195662291247       -2.72192497321559        3.13009393082722
C           -5.64233785443317       -1.97833586313563        2.09321679054812
C           -4.90185535362889       -1.65104408738808        0.96474398296434
C           -5.52932807052875       -0.77819847289497       -0.10320456245192
C           -6.83559371661325       -1.43170179654935       -0.59018169277369
C           -5.81439448661320        0.60476300787362        0.51282923416610
C           -4.60752285971865       -0.58929096238151       -1.28794427994977
C           -5.03837852059902        0.14401276907957       -2.38586796047398
C           -4.23987635721299        0.33481651704262       -3.49790960216539
C           -2.98045677295740       -0.24089801004001       -3.53654059191425
C           -2.52775039874680       -0.96637825227811       -2.45763758919967
C           -3.31523749091794       -1.12318958696009       -1.30987670545823
C           -0.71238841685439       -0.67198730252300       -0.06749581420508
N           -1.35206949014810        0.49351584149954       -0.09502246072680
C           -0.70252057473181        1.65741183187905       -0.00982437969697
C           -1.54365107033692        2.84927034120510        0.07851144465448
C           -2.74287994251932        2.87690955215701       -0.63524701508885
C           -3.58647706728477        3.96611643628349       -0.53997485709739
C           -3.25320318383300        5.03766783504159        0.27271356187563
C           -2.07374694216081        5.00744992994027        1.00051163472185
C           -1.22496364160856        3.92154014477468        0.91132339469187
C            0.70150272937599        1.65792695120503        0.01991818269382
C            1.54166110119338        2.85074624484400       -0.06460257784233
C            1.22199502761795        3.92548881423198       -0.89384322631884
C            2.06989137839269        5.01236830060337       -0.97958481902725
C            3.24943673972040        5.04113418994315       -0.25187400277756
C            3.58369581904260        3.96718020583812        0.55723043637061
C            2.74097800224847        2.87699697094243        0.64906028942427
N            1.35198026062766        0.49428793269638        0.10129904483423
C            0.71326136256174       -0.67163096925233        0.06989079455719
C            3.31654543759967       -1.12493443152429        1.31063690907159
C            2.52901497700338       -0.97269647485788        2.45898739471220
C            2.98122760027324       -0.25059734512050        3.54035909692101
C            4.24020327465727        0.32621574530694        3.50364077070622
C            5.03876289676970        0.13991336044215        2.39087719029661
C            4.60839956315229       -0.58990905428593        1.29044685176072
H            4.87914857508665        1.07899285966375       -0.81043982368058
H            6.45704341854714        0.52535551350984       -1.37822155886822
H            6.30100821958763        1.25942264143940        0.21752071534148
H            7.54526859744946       -1.53794517821264       -0.22649513150524
H            6.62682050411621       -2.41458597250215        0.99834339423333
H            7.30829412664617       -0.82967622794440        1.36387732130970
H            6.66394602913946       -1.62255561593915       -2.17726913141185
H            5.71974137955460       -2.94368976666778       -3.99647566882589
H            3.35418200624210       -3.68203847861679       -3.87531578096146
H            2.00604112719715       -3.12336884116418       -1.92168722576482
H            1.22861658206096       -4.03233991818452        0.14897089500826
H           -1.22500348829072       -4.03282549248861       -0.15787063238220
H           -2.00329991175694       -3.13149324237662        1.91576435132087
H           -3.35117592712435       -3.69807952215806        3.86729509797760
H           -5.71742737691556       -2.96231922755623        3.99067283287315
H           -6.66258563945368       -1.63576489049026        2.17591100700738
H           -7.54375348593937       -1.54510079822959        0.22534652596972
H           -7.30720159199748       -0.83108028235835       -1.36252061342208
H           -6.62439825275009       -2.41666187995713       -1.00242979350519
H           -6.30189284963637        1.25485090498830       -0.20876713533719
H           -4.87993721317518        1.07208400903745        0.81864398875207
H           -6.45738057194877        0.51511205561148        1.38441228073962
H           -6.02177634802471        0.58924987205063       -2.37490168764494
H           -4.60058758864711        0.91981122527870       -4.33035938583513
H           -2.35142935896099       -0.12316744386268       -4.40619566125602
H           -1.54949356348155       -1.42125868216144       -2.49278000380733
H           -2.99614224015355        2.03720370051387       -1.26519667671562
H           -4.50945257247658        3.97864765719821       -1.10145137809266
H           -3.91286820430244        5.88973764933246        0.34609589658595
H           -1.81802702099469        5.83330426365413        1.64839761607659
H           -0.31792311167582        3.89500987999248        1.49707727166097
H            0.31489409805164        3.90015551960751       -1.47955667581148
H            1.81341069544454        5.84013894343711       -1.62471899076602
H            3.90842113742178        5.89395716334159       -0.32257491113473
H            4.50676320561246        3.97859487641507        1.11858041020375
H            2.99500883774278        2.03542908835415        1.27621152920392
H            1.55111967861374       -1.42846971641185        2.49262716143261
H            2.35217377398504       -0.13636896351809        4.41046230602461
H            4.60051909818065        0.90860286313144        4.33808798744430
H            6.02179811487621        0.58598593008186        2.38137331732987
