94
 energy: -139.189728928544 gnorm: 0.000060698537 xtb: 6.7.1 (edcfbbe)
C            5.78499150606862        0.61960138910481       -0.56058828808418
C            5.51997246296772       -0.77371933724256        0.04092383158371
C            6.83885136783553       -1.42535144130616        0.49516756830803
C            4.87903662076110       -1.63574505766758       -1.02781990515135
C            5.60108722492434       -1.94314294195632       -2.17370478397660
C            5.05692137055703       -2.67687404264941       -3.21047794891569
C            3.74279679589598       -3.10125084278185       -3.12039149997716
C            3.00289597096449       -2.80740409596543       -1.99587441480977
C            3.55903779657779       -2.09273734339760       -0.92946491599284
N            2.80108369088661       -1.85073854410251        0.20908660833809
C            1.38833768575355       -1.91060829514153        0.12967100584427
C            0.68031844777911       -3.11073749032209        0.07270424047656
C           -0.69409865011337       -3.10801743053184       -0.06310603882923
C           -1.39725121919089       -1.90510534860805       -0.12220207400599
N           -2.80971181234961       -1.83993802478072       -0.20258142642560
C           -3.56958917361334       -2.07811440054579        0.93547734740869
C           -3.01667862076843       -2.79277416714057        2.00357360120315
C           -3.75879374914505       -3.08313615293927        3.12753875060955
C           -5.07194613276036       -2.65527091524317        3.21532054681046
C           -5.61282954500730       -1.92142878733934        2.17690568510062
C           -4.88844570115990       -1.61733405765799        1.03161291651374
C           -5.52565009443314       -0.75483531806302       -0.03899128081896
C           -6.84583094918959       -1.40334497766793       -0.49395063619063
C           -5.78751612382339        0.63998340181253        0.56043185222243
C           -4.62177305010067       -0.59168817927901       -1.24128983457979
C           -5.06445016553694        0.12781557778788       -2.34359176789816
C           -4.28121387439091        0.29732360355455       -3.46987651739176
C           -3.02516669146786       -0.28506417076079       -3.51784574065209
C           -2.56087344190290       -0.99732940179955       -2.43505910770305
C           -3.33332012424222       -1.13417406101966       -1.27464980387260
C           -0.71524176644228       -0.67802494727173       -0.06069396982762
N           -1.35200810017736        0.48899101041462       -0.09187939623774
C           -0.69881934133795        1.65157561786414       -0.01538056158965
C           -1.53721777964083        2.84649247637163        0.06027356398524
C           -2.73046705229638        2.87291848165700       -0.66342161131969
C           -3.57076991814890        3.96591342621106       -0.58357293709644
C           -3.24021591384734        5.04239645200583        0.22366030145033
C           -2.06718811645659        5.01322002775773        0.96179107432148
C           -1.22164027324701        3.92358329059210        0.88787307791869
C            0.70490316325010        1.64864764670608        0.01475014203830
C            1.54838918725559        2.83975480386298       -0.06458576647941
C            1.23742484600043        3.91552318863498       -0.89565582650549
C            2.08747644699067        5.00141832094965       -0.97285016277065
C            3.26046722157172        5.02809663987443       -0.23456603834165
C            3.58649394292498        3.95274985346011        0.57601614598494
C            2.74169222701185        2.86346417415233        0.65912425547377
N            1.35313097443386        0.48346624382194        0.09465092016695
C            0.71135029998370       -0.68088331706350        0.06604107239453
C            3.32791945464670       -1.14489546156517        1.27951028814024
C            2.55700120409734       -1.00389207275462        2.44043246908753
C            3.02473395541329       -0.29183482548721        3.52187670265330
C            4.28273698942319        0.28616129953166        3.47201640141601
C            5.06423315227650        0.11278911320949        2.34511366573004
C            4.61802623715378       -0.60650849210086        1.24410025167170
H            4.84222815703960        1.08441578503368       -0.84394326233051
H            6.41368184079705        0.54661166928496       -1.44407437176324
H            6.28001623543331        1.26318679524319        0.16171618724473
H            6.64102865788042       -2.41625310355499        0.89973806607445
H            7.32199592074611       -0.83107138451187        1.26526272506618
H            7.53182490536177       -1.52521578682463       -0.33503983701388
H            6.61727457091642       -1.59226861406406       -2.27047132751129
H            5.64810909995419       -2.90132805347309       -4.08518523031911
H            3.29056792502747       -3.65797294652787       -3.92757241284305
H            1.97437500393109       -3.12617058838755       -1.94436931568296
H            1.22037093533215       -4.04269879034509        0.14205507754906
H           -1.23798446694233       -4.03785777193159       -0.13103516417168
H           -1.98893106862837       -3.11430589569701        1.95376957250995
H           -3.30905917047097       -3.63990141341498        3.93608344133807
H           -5.66487826585130       -2.87709065670009        4.08951874706915
H           -6.62825059349395       -1.56784825662590        2.27183521234021
H           -6.65061929506405       -2.39622564523760       -0.89492284914189
H           -7.54089589645083       -1.49809468035562        0.33511334251253
H           -7.32526250754244       -0.80988409579890       -1.26699254721448
H           -6.28089042715843        1.28367108494542       -0.16290981162508
H           -4.84372198261257        1.10297137076169        0.84333978140767
H           -6.41656136328238        0.56973505501092        1.44388924155262
H           -6.04493906476590        0.57916124708482       -2.32492719610352
H           -4.65096786909780        0.87161948750104       -4.30581177683959
H           -2.40788214526909       -0.18285078286404       -4.39782525941934
H           -1.58524640441929       -1.45731257872491       -2.47676142999819
H           -2.98174651658342        2.02936843733300       -1.28904617202150
H           -4.48883054305626        3.97756595933914       -1.15305695520447
H           -3.89707698405661        5.89759680746107        0.28473038514953
H           -1.81384692838557        5.84302320201641        1.60554234010803
H           -0.31959166547574        3.89821956496319        1.48132038864285
H            0.33539878705998        3.89199462698457       -1.48921189440442
H            1.83767775516581        5.83021314272798       -1.61927839399749
H            3.92081406767185        5.88042687692574       -0.29812586560101
H            4.50453463940218        3.96238790567807        1.14557096053539
H            2.98943533257299        2.02080605678521        1.28736032822562
H            1.57983652210263       -1.46047140337262        2.48360723693069
H            2.40864453840426       -0.18640320532996        4.40231413192576
H            4.65531329001010        0.86008101154902        4.30695920281377
H            6.04618881553665        0.56086217888972        2.32491381759269
