  68
        -95.78844834
 C         -1.9705204183       -3.0219682676        0.5264296554
 C         -2.9098582645       -1.9043608937        0.9910423256
 C         -2.9289478089       -1.8297236894        2.5214388032
 C         -4.3042772934       -2.0872205629        0.4350744702
 C         -5.1790025959       -3.1247419681        0.6283208711
 C         -6.4319793725       -3.0785165769        0.0155810312
 C         -6.7916036879       -1.9943978664       -0.7816453835
 C         -5.9249594952       -0.9434920180       -0.9874260964
 C         -4.6628069842       -0.9804111117       -0.3784478819
 C         -3.5797056929       -0.0635950942       -0.4118583373
 C         -3.4229741311        1.1807318747       -1.0569637852
 C         -2.2549771516        1.8734278192       -0.9052697148
 C         -1.1934583244        1.3615088008       -0.1181583721
 N         -0.0014297963        2.0507897865       -0.0127655070
 C         -0.0020193966        3.4499033834       -0.0054533666
 C          1.0094142458        4.1576761780       -0.6585201939
 C          1.0082833486        5.5377411522       -0.6421207078
 C          0.0042310908        6.2304018666        0.0182212111
 C         -1.0037430104        5.5310522920        0.6653223708
 C         -1.0113633153        4.1509071989        0.6579382069
 C          1.1918313836        1.3639015925        0.0948082236
 C          2.2465505094        1.8746261715        0.8921795228
 C          3.4129406215        1.1819239148        1.0530190521
 C          3.5752923758       -0.0613463929        0.4070961713
 C          2.5178887539       -0.5723182621       -0.4026730186
 C          1.3541709958        0.1113276262       -0.5577415772
 C          2.9197424953       -1.8997519049       -1.0053854716
 C          2.9563000961       -1.8244720279       -2.5353928627
 C          1.9745558427       -3.0172736745       -0.5522974160
 C          4.3073350314       -2.0848683581       -0.4329673751
 C          5.1825786485       -3.1239857564       -0.6145593525
 C          6.4267131661       -3.0811488340        0.0164391186
 C          6.7772519537       -1.9986852790        0.8200784964
 C          5.9103331036       -0.9458842470        1.0138823904
 C          4.6569968807       -0.9794569466        0.3864317596
 C         -1.3492101064        0.1067997035        0.5314396906
 C         -2.5142526009       -0.5765537589        0.3855148943
 H         -0.9587526616       -2.8350246421        0.8785260061
 H         -1.9597772778       -3.0745372566       -0.5602849908
 H         -2.3035316496       -3.9813577812        0.9147447516
 H         -1.9300559565       -1.6302514613        2.9030320447
 H         -3.5934825360       -1.0333585369        2.8495788092
 H         -3.2811929228       -2.7693673135        2.9399865470
 H         -4.9129766948       -3.9709457340        1.2458898456
 H         -7.1292586714       -3.8895956132        0.1618434676
 H         -7.7680224123       -1.9822907077       -1.2448217396
 H         -6.2068937194       -0.1056552237       -1.6075792357
 H         -4.2160504728        1.5730106638       -1.6749305661
 H         -2.1086063010        2.8134830380       -1.4176827902
 H          1.7797935881        3.6132114232       -1.1843210304
 H          1.7914174397        6.0771902642       -1.1531704904
 H          0.0075590889        7.3093568754        0.0289259897
 H         -1.7838535276        6.0652293099        1.1865087286
 H         -1.7838866341        3.6011425478        1.1749291257
 H          2.0953102926        2.8133631784        1.4054449267
 H          4.2002734811        1.5726331022        1.6791860368
 H          0.5611524689       -0.2530653152       -1.1933660457
 H          1.9607406286       -1.6310433293       -2.9285254283
 H          3.6198866841       -1.0241040407       -2.8556752997
 H          3.3190824458       -2.7620178209       -2.9498953321
 H          1.9521287931       -3.0706750194        0.5343034651
 H          2.3119082297       -3.9763692300       -0.9377734066
 H          0.9666717061       -2.8300751459       -0.9154940397
 H          4.9238104581       -3.9692699049       -1.2364199089
 H          7.1240580820       -3.8938807429       -0.1200820811
 H          7.7467109979       -1.9895024191        1.2977712236
 H          6.1849053637       -0.1090754858        1.6386746597
 H         -0.5504826306       -0.2595212289        1.1586647467
  68
        -95.78780060
 C         -2.6632256147       -1.9672253322       -2.5027052627
 C         -2.8749504161       -1.9665798639       -0.9859420068
 C         -2.0806892937       -3.1070636328       -0.3386159826
 C         -4.3426594811       -2.0556032174       -0.6312925642
 C         -5.2489497706       -3.0327711728       -0.9499867489
 C         -6.5714060473       -2.8975540176       -0.5234092000
 C         -6.9667155788       -1.7877980886        0.2207598180
 C         -6.0693294279       -0.7978434078        0.5536854280
 C         -4.7384366408       -0.9211732328        0.1269891737
 C         -3.6215417238       -0.0647635345        0.2915449635
 C         -3.4823011149        1.1820647268        0.9385414581
 C         -2.2879615188        1.8398836325        0.8741862300
 C         -1.1804295501        1.2918364936        0.1769676145
 N          0.0017908217        1.9958238089        0.0849885645
 C         -0.0307924042        3.3933928856        0.0060585532
 C         -1.0283604075        4.0345573052       -0.7315988132
 C         -1.0568655231        5.4123719575       -0.8028596914
 C         -0.0971824251        6.1682063990       -0.1457326986
 C          0.8972779527        5.5346743970        0.5848687796
 C          0.9354742726        4.1571327801        0.6636404488
 C          1.2138327968        1.3355103402        0.0142237231
 C          2.2488343234        1.8311485620       -0.8156989627
 C          3.4218062821        1.1465692932       -0.9693821387
 C          3.6106524665       -0.0647949881       -0.2756973236
 C          2.5853893986       -0.5443231316        0.5907670382
 C          1.4095474646        0.1245028304        0.7290287392
 C          3.0301576747       -1.8248938533        1.2615668030
 C          2.0606483651       -2.9748384587        0.9762963211
 C          3.1824413788       -1.6191060513        2.7737746500
 C          4.3804743206       -2.0511462592        0.6180827752
 C          5.2576924143       -3.0899342559        0.7957618665
 C          6.4646116899       -3.0853461543        0.0954927576
 C          6.7790772083       -2.0398763128       -0.7688912619
 C          5.9105995759       -0.9866681145       -0.9569585718
 C          4.6936227321       -0.9844911968       -0.2630372238
 C         -1.3032396930        0.0117187468       -0.4308701207
 C         -2.4952844211       -0.6363599643       -0.3749649725
 H         -1.6081287834       -1.8474586395       -2.7377487632
 H         -3.2173095432       -1.1499694329       -2.9593002441
 H         -3.0109847687       -2.9038880133       -2.9315081251
 H         -2.4045138142       -4.0655964555       -0.7368950778
 H         -1.0178740630       -2.9866061292       -0.5358885252
 H         -2.2384516986       -3.1088234741        0.7378598663
 H         -4.9568038267       -3.8979864603       -1.5280954308
 H         -7.2950167589       -3.6583427135       -0.7744553783
 H         -7.9965802955       -1.7068038064        0.5385486584
 H         -6.3791944519        0.0614416870        1.1295318868
 H         -4.3136004841        1.6049357028        1.4814199270
 H         -2.1590606757        2.7869461365        1.3783292240
 H         -1.7628893437        3.4399344535       -1.2542225093
 H         -1.8277649512        5.8998528577       -1.3803858633
 H         -0.1238765145        7.2452976126       -0.2036796195
 H          1.6432701648        6.1190300713        1.1020148616
 H          1.6995662254        3.6579423487        1.2410888649
 H          2.0754345162        2.7459681860       -1.3639147723
 H          4.1922098433        1.5201676947       -1.6263760558
 H          0.6308927423       -0.2207783363        1.3929693329
 H          1.0816119108       -2.7579613726        1.3978259970
 H          1.9558993724       -3.1191366015       -0.0970889010
 H          2.4308564686       -3.8985648742        1.4143227380
 H          2.2211736428       -1.3792301033        3.2227345873
 H          3.8737687185       -0.8026852166        2.9721004635
 H          3.5707629854       -2.5219471279        3.2391147988
 H          5.0272795651       -3.9069622979        1.4647173956
 H          7.1615550527       -3.8995721111        0.2254619727
 H          7.7205661796       -2.0593243509       -1.2993102199
 H          6.1567700662       -0.1783812457       -1.6293541941
 H         -0.4611651521       -0.3941247876       -0.9706857020
  68
        -95.78772270
 C         -3.3335768811       -2.6691587939       -1.5694900543
 C         -3.4549476416       -2.2029462189       -0.1151118584
 C         -2.7188319793       -3.1715644474        0.8169444370
 C         -4.9032279034       -2.0433977416        0.2904813678
 C         -5.8922320549       -2.9912938710        0.3446298787
 C         -7.1729898085       -2.6126798412        0.7490427249
 C         -7.4459293249       -1.2912387842        1.0939245980
 C         -6.4640050103       -0.3259117355        1.0461026991
 C         -5.1738069394       -0.6955730303        0.6427542885
 C         -3.9825919621        0.0648017835        0.5033318695
 C         -3.7125777127        1.4311195821        0.7198145591
 C         -2.4533607558        1.9106363789        0.4921977415
 C         -1.4114403556        1.0580826805        0.0506642705
 N         -0.1327115224        1.5492390632       -0.1279603350
 C          0.0523075540        2.8553497564       -0.5943831677
 C         -0.7983049730        3.3826238339       -1.5687718394
 C         -0.6112791675        4.6715324102       -2.0254170811
 C          0.4221930005        5.4500723473       -1.5252409610
 C          1.2703010661        4.9294806489       -0.5587088137
 C          1.0905683898        3.6433764736       -0.0916871560
 C          0.9653697800        0.7618643881        0.1554937639
 C          0.9113356323       -0.1887160104        1.2074548638
 C          1.9812992313       -0.9859074115        1.4979473104
 C          3.1590472804       -0.8711026514        0.7316681585
 C          3.2150595486        0.0852333235       -0.3278184019
 C          2.1540992882        0.8843099351       -0.6132489690
 C          4.5673841746        0.0334132494       -1.0027727428
 C          5.2910717696        1.3791599164       -0.8863568549
 C          4.4385701921       -0.3748565210       -2.4742790967
 C          5.2666668006       -1.0401442985       -0.1983507965
 C          6.5409029720       -1.5260409687       -0.3347441067
 C          6.9786164359       -2.5340403160        0.5259534555
 C          6.1344143503       -3.0413152705        1.5112762666
 C          4.8515341256       -2.5640863864        1.6639992419
 C          4.4018156110       -1.5500597997        0.8058466321
 C         -1.6809309681       -0.3198022210       -0.1644608503
 C         -2.9356448080       -0.7931883289        0.0553803522
 H         -2.2878986013       -2.7202991798       -1.8644048540
 H         -3.8491420698       -1.9752897865       -2.2299562427
 H         -3.7777511645       -3.6545456092       -1.6876166656
 H         -3.1372061646       -4.1712231259        0.7295370234
 H         -1.6618862832       -3.2117607352        0.5632080347
 H         -2.8166301863       -2.8447173027        1.8497895080
 H         -5.6942348138       -4.0199226655        0.0785316867
 H         -7.9596276938       -3.3507067073        0.7946892639
 H         -8.4460984655       -1.0234069312        1.4038016032
 H         -6.6790131822        0.6974523494        1.3153635302
 H         -4.4923156733        2.0868738320        1.0758300148
 H         -2.2227416243        2.9489131117        0.6829880460
 H         -1.5908145643        2.7664504567       -1.9670798676
 H         -1.2705263259        5.0694930378       -2.7821019042
 H          0.5654815361        6.4568011577       -1.8860594456
 H          2.0717856908        5.5334890774       -0.1606201226
 H          1.7371804857        3.2395800818        0.6731948743
 H          0.0141369054       -0.2376016798        1.8066706157
 H          1.9366519621       -1.6849017893        2.3191189417
 H          2.1804865946        1.5904480511       -1.4302702322
 H          4.7378855323        2.1541296596       -1.4127347284
 H          5.3828253626        1.6652178740        0.1593289256
 H          6.2879680485        1.3096915849       -1.3149592010
 H          3.8778131400        0.3745891466       -3.0285786835
 H          3.9203767643       -1.3280736574       -2.5544201902
 H          5.4232793304       -0.4773064535       -2.9240207111
 H          7.2060905232       -1.1427267872       -1.0955151939
 H          7.9799603831       -2.9249970626        0.4264722926
 H          6.4970680022       -3.8221787203        2.1646136885
 H          4.2001664709       -2.9585386017        2.4295947347
 H         -0.8896218287       -0.9551182688       -0.5333561694
  68
        -95.78768108
 C         -1.7428491789       -2.9222887314        0.7493784758
 C         -2.7742066400       -1.8469706233        1.1022354656
 C         -2.8877025872       -1.7014468964        2.6240784048
 C         -4.1212832249       -2.1405217249        0.4820955236
 C         -4.9268161215       -3.2359071765        0.6550916273
 C         -6.1437433445       -3.2968198537       -0.0250865828
 C         -6.5377908496       -2.2587008532       -0.8661663927
 C         -5.7415174624       -1.1495909022       -1.0505406983
 C         -4.5142003679       -1.0798771050       -0.3765447998
 C         -3.4923352329       -0.0944462536       -0.3886526179
 C         -3.3842054847        1.1413583445       -1.0610372795
 C         -2.2565718037        1.8978655275       -0.9032256273
 C         -1.1867202007        1.4552689554       -0.0871141738
 N         -0.0036449678        2.1661613942       -0.0081063724
 C         -0.0017829731        3.5602288778       -0.0082448118
 C          1.0459216575        4.2622135711       -0.6100684755
 C          1.0453752472        5.6421782685       -0.6071903355
 C          0.0058100150        6.3422103898       -0.0129005283
 C         -1.0370014217        5.6495907980        0.5843912560
 C         -1.0452036919        4.2695415647        0.5921388001
 C          1.1822653157        1.4580561335        0.0746454676
 C          2.2340480644        1.8900581263        0.9187593278
 C          3.3561558216        1.1289218109        1.0936418694
 C          3.4781074670       -0.0969187708        0.4063380957
 C          2.4382334335       -0.5090112383       -0.4784625172
 C          1.3129489483        0.2344246688       -0.6363325753
 C          2.8046582945       -1.8171490848       -1.1414058534
 C          2.9777115894       -1.6290885711       -2.6532412372
 C          1.7598918760       -2.8998789146       -0.8591353704
 C          4.1277231389       -2.1297800781       -0.4799369119
 C          4.9332925246       -3.2265199397       -0.6443193155
 C          6.1239593112       -3.3075972387        0.0787836634
 C          6.4924892005       -2.2880515450        0.9532682603
 C          5.6966724382       -1.1770313330        1.1281231813
 C          4.4957960240       -1.0872314592        0.4107804800
 C         -1.3009816808        0.2183552742        0.6045697513
 C         -2.4284185218       -0.5236883810        0.4588313901
 H         -0.7641167461       -2.6447521115        1.1327166064
 H         -1.6755108789       -3.0374638586       -0.3301066038
 H         -2.0290719445       -3.8780724951        1.1813876908
 H         -3.2065929198       -2.6407483856        3.0694675343
 H         -1.9263864239       -1.4215696194        3.0492105677
 H         -3.6168176170       -0.9338340295        2.8744206603
 H         -4.6321635010       -4.0471432976        1.3055780055
 H         -6.7852576876       -4.1558599200        0.1019338750
 H         -7.4851109395       -2.3298289540       -1.3817533992
 H         -6.0500774411       -0.3485902566       -1.7056810462
 H         -4.1820236482        1.4765793584       -1.7059481834
 H         -2.1455257425        2.8312851453       -1.4364414925
 H          1.8429144004        3.7126001654       -1.0886940900
 H          1.8564895649        6.1761365976       -1.0790848958
 H          0.0085493354        7.4212300025       -0.0149063791
 H         -1.8449072896        6.1895834467        1.0548282581
 H         -1.8445472891        3.7262270420        1.0738897424
 H          2.1111746785        2.8168263490        1.4609705355
 H          4.1387208372        1.4532122166        1.7624417890
 H          0.5239918787       -0.0613312299       -1.3116049759
 H          3.7181416369       -0.8574087418       -2.8529423499
 H          3.3114329684       -2.5565997660       -3.1122994167
 H          2.0344296366       -1.3335832109       -3.1073137774
 H          2.0617712261       -3.8431660147       -1.3076189419
 H          0.7962206089       -2.6103194137       -1.2708054768
 H          1.6522239755       -3.0462789626        0.2132706118
 H          4.6579718108       -4.0240949975       -1.3197800157
 H          6.7646253209       -4.1683141279       -0.0403133374
 H          7.4191245669       -2.3750932476        1.5026858161
 H          5.9853464502       -0.3901548215        1.8090002608
 H         -0.4981513370       -0.0886789705        1.2579128925
  68
        -95.78756021
 C         -4.7981602298        0.4769528820        2.6158216680
 C         -4.8666287567        0.3959321458        1.0870555915
 C         -5.3897993820        1.7143888706        0.5073285260
 C         -5.7114331582       -0.7763006159        0.6396482985
 C         -7.0424398897       -1.0140313547        0.8648144233
 C         -7.6194825553       -2.1780094570        0.3547388447
 C         -6.8561249265       -3.0871085516       -0.3740959677
 C         -5.5174769126       -2.8642188961       -0.6104199182
 C         -4.9275363980       -1.6978204499       -0.1031673982
 C         -3.5988427786       -1.2073925170       -0.1901404500
 C         -2.4465006310       -1.7272218425       -0.8133946025
 C         -1.2720983776       -1.0333817167       -0.7387976509
 C         -1.1939340423        0.2084670017       -0.0595116855
 N          0.0028443359        0.8940491994        0.0078155051
 C         -0.0027926589        2.2934075028       -0.0018913583
 C         -0.9149189834        2.9885336960       -0.8000449345
 C         -0.9194927447        4.3685001998       -0.8032816914
 C         -0.0181381269        5.0751215503       -0.0202485029
 C          0.8910673031        4.3887023220        0.7716086618
 C          0.9019278861        3.0087337050        0.7865613773
 C          1.2027818924        0.2149957192        0.0812672060
 C          1.2828300742       -1.0239904268        0.7653392843
 C          2.4565909185       -1.7193691647        0.8367981271
 C          3.6060717696       -1.2035809021        0.2056179896
 C          3.5272265632        0.0445531088       -0.4821770311
 C          2.3633794547        0.7432039217       -0.5443142898
 C          4.8715188904        0.3948186831       -1.0795328957
 C          5.4069778511        1.7089015190       -0.5008494864
 C          4.7914563762        0.4800164303       -2.6076387925
 C          5.7135087006       -0.7834601555       -0.6426629408
 C          7.0401915430       -1.0304185885       -0.8834358923
 C          7.6136444555       -2.2008123253       -0.3845676543
 C          6.8516255807       -3.1068385466        0.3494029286
 C          5.5177047351       -2.8739887152        0.6024538078
 C          4.9314212293       -1.7014385249        0.1059251137
 C         -2.3556925498        0.7377975305        0.5632666094
 C         -3.5199732496        0.0406157195        0.4983653673
 H         -4.1346324547        1.2822483391        2.9233125154
 H         -4.4229028501       -0.4590743253        3.0239207348
 H         -5.7871157171        0.6629053867        3.0278537865
 H         -6.3876878362        1.9230429130        0.8853740509
 H         -4.7329357469        2.5366315964        0.7830158920
 H         -5.4360988267        1.6539153964       -0.5780236534
 H         -7.6460779066       -0.3174812882        1.4292934268
 H         -8.6666581116       -2.3758918351        0.5271295870
 H         -7.3267168003       -3.9808164816       -0.7587799343
 H         -4.9289521596       -3.5708061658       -1.1764368903
 H         -2.4996050210       -2.6569640284       -1.3588200191
 H         -0.3867358328       -1.3998756557       -1.2373581846
 H         -1.6026894066        2.4339466072       -1.4210040428
 H         -1.6245311190        4.8972728340       -1.4270921533
 H         -0.0240341433        6.1540714013       -0.0273883229
 H          1.5903513118        4.9335442430        1.3879632226
 H          1.5958648899        2.4699786569        1.4145331253
 H          0.3989834701       -1.3880832167        1.2683002983
 H          2.5107041387       -2.6477937816        1.3843158135
 H          2.2902239312        1.6751415513       -1.0855654589
 H          4.7533790707        2.5359317342       -0.7701023074
 H          5.4611275143        1.6460752633        0.5841010752
 H          6.4033394046        1.9119470960       -0.8859843179
 H          4.1321918812        1.2913927747       -2.9079656792
 H          4.4053120824       -0.4520215672       -3.0147779157
 H          5.7784542959        0.6588369814       -3.0274012168
 H          7.6429390810       -0.3364455783       -1.4520705017
 H          8.6570041738       -2.4064278424       -0.5702508705
 H          7.3192765079       -4.0057865966        0.7248294275
 H          4.9299828471       -3.5780435969        1.1724401164
 H         -2.2829223210        1.6702641294        1.1035942622
  68
        -95.78739698
 C         -2.2488016344       -3.1312286579        0.3060529197
 C         -3.0691934299       -1.9801657455        0.8986769064
 C         -2.9783522378       -1.9958139298        2.4279946669
 C         -4.5088606991       -2.0379429324        0.4367926268
 C         -5.4476988600       -3.0123005295        0.6552693457
 C         -6.7334494645       -2.8446318333        0.1376397423
 C         -7.0619105320       -1.7041144979       -0.5923747225
 C         -6.1311025677       -0.7163330479       -0.8247148847
 C         -4.8356708728       -0.8753028257       -0.3103892021
 C         -3.6943244376       -0.0382401132       -0.3816468677
 C         -3.4920867328        1.2152780552       -0.9961770794
 C         -2.2813906910        1.8328747126       -0.8724859317
 C         -1.2202243226        1.2392376841       -0.1404353601
 N         -0.0203641193        1.9009872206       -0.0101156870
 C          0.0014126144        3.3053398665       -0.0279419501
 C          0.9727001366        3.9722464506       -0.7759619246
 C          0.9953316584        5.3520064947       -0.8032458240
 C          0.0602896367        6.0811231944       -0.0834294235
 C         -0.9026246167        5.4204977188        0.6652961610
 C         -0.9387547053        4.0405895324        0.6944279565
 C          1.1797364146        1.2333927479        0.1377706544
 C          2.1851146785        1.7850663642        0.9706784452
 C          3.3830091629        1.1542066208        1.1496134954
 C          3.6321877591       -0.0549674228        0.4710227661
 C          2.6276254136       -0.6040984118       -0.3800224641
 C          1.4218256295        0.0063727273       -0.5342397086
 C          3.1456057839       -1.8608992615       -1.0445926407
 C          3.2496444008       -1.6630199004       -2.5622019035
 C          2.2691139053       -3.0747613945       -0.7255375942
 C          4.5230519373       -1.9852210320       -0.4307307864
 C          5.4743690778       -2.9517471578       -0.6325688469
 C          6.6956089685       -2.8513143982        0.0353473152
 C          6.9488766508       -1.7848166031        0.8946424010
 C          6.0050338559       -0.8043939341        1.1084050338
 C          4.7745363441       -0.8971729819        0.4439979812
 C         -1.4122303900       -0.0395515551        0.4519704945
 C         -2.6203384024       -0.6505250811        0.3327549001
 H         -1.2013974096       -3.0304667928        0.5820098208
 H         -2.3269652216       -3.1265408243       -0.7792045098
 H         -2.6169113424       -4.0855638955        0.6749645564
 H         -3.3740812797       -2.9302849536        2.8186216918
 H         -1.9437168324       -1.8946243615        2.7477822525
 H         -3.5552668028       -1.1737808366        2.8463397341
 H         -5.2092077075       -3.9011538906        1.2220444436
 H         -7.4815998517       -3.6042955694        0.3069497949
 H         -8.0652631020       -1.5973580614       -0.9797534194
 H         -6.3878555740        0.1668464994       -1.3904437171
 H         -4.2868398064        1.6731222533       -1.5647599231
 H         -2.1032371194        2.7813586445       -1.3580861754
 H          1.6922121022        3.3955066519       -1.3383965714
 H          1.7423611585        5.8615837233       -1.3929329875
 H          0.0822123766        7.1596616661       -0.1058176927
 H         -1.6257362688        5.9848726778        1.2345187406
 H         -1.6789113881        3.5184873788        1.2827357072
 H          1.9695917408        2.7057683642        1.4935749287
 H          4.1314818948        1.5717476749        1.8053483956
 H          0.6627353449       -0.3865197533       -1.1943555048
 H          3.7466433264       -2.5153071127       -3.0196177980
 H          2.2597485040       -1.5581544706       -3.0007358186
 H          3.8263300046       -0.7671341914       -2.7832681635
 H          1.2652040713       -2.9314301359       -1.1193477740
 H          2.2056743335       -3.2194651901        0.3509788588
 H          2.6923228460       -3.9720506782       -1.1706439349
 H          5.2932730658       -3.7834972028       -1.2986521105
 H          7.4525109119       -3.6059421384       -0.1169537665
 H          7.9030291088       -1.7296863707        1.3993605721
 H          6.2035965651        0.0209422029        1.7758332340
 H         -0.6083431875       -0.4766668033        1.0249578502
  68
        -95.78708736
 C         -4.9472251704        0.8491224152        2.3793809081
 C         -4.9259857632        0.5120354591        0.8863589620
 C         -5.3886390419        1.7203673406        0.0618976648
 C         -5.7682048636       -0.7046283550        0.5733831407
 C         -7.1070394820       -0.9029912528        0.7889065628
 C         -7.6817171058       -2.1187263995        0.4148273155
 C         -6.9080932253       -3.1173746495       -0.1725426469
 C         -5.5622447401       -2.9337777120       -0.4009137818
 C         -4.9738331365       -1.7163717956       -0.0286074944
 C         -3.6371847060       -1.2527662575       -0.1307793203
 C         -2.4752157116       -1.8424042999       -0.6691700342
 C         -1.2923663935       -1.1604459499       -0.6265070437
 C         -1.2052224269        0.1294167549       -0.0416885393
 N         -0.0019503187        0.7992382760        0.0148132806
 C          0.0055602146        2.2026097734       -0.0077445381
 C         -0.8434796657        2.9019973297       -0.8676813897
 C         -0.8291448012        4.2822294524       -0.8801166529
 C          0.0284998653        4.9827442658       -0.0445176133
 C          0.8757385042        4.2909631057        0.8089002251
 C          0.8671719887        2.9111279947        0.8323812814
 C          1.2054751234        0.1337905641        0.0897253206
 C          1.3160138293       -1.1081811208        0.7635507945
 C          2.5062825278       -1.7776584598        0.8255261753
 C          3.6466693123       -1.2255339849        0.2092111105
 C          3.5410088808        0.0344270247       -0.4516052822
 C          2.3583893591        0.6992706483       -0.5181102633
 C          4.8848163782        0.4470313590       -1.0075303419
 C          5.3634348130        1.7484150384       -0.3535188226
 C          4.8394216095        0.6031200759       -2.5306545959
 C          5.7525296099       -0.7220292779       -0.5981693812
 C          7.0896057214       -0.9214090858       -0.8254514388
 C          7.6904760497       -2.0898709566       -0.3555595398
 C          6.9444213395       -3.0416139631        0.3352838362
 C          5.6006248561       -2.8554954811        0.5762576928
 C          4.9871701937       -1.6843393785        0.1109614461
 C         -2.3803224965        0.7320057391        0.4853881811
 C         -3.5584984124        0.0592643360        0.4271934321
 H         -4.2837615960        1.6854609350        2.5883237938
 H         -4.6213650761       -0.0089780122        2.9631249397
 H         -5.9538493592        1.1181189029        2.6903059919
 H         -6.4046015817        1.9961786696        0.3339115242
 H         -4.7350435587        2.5719694219        0.2385277502
 H         -5.3677960526        1.4786598181       -0.9988233310
 H         -7.7184354636       -0.1368962820        1.2444283441
 H         -8.7346182572       -2.2871775607        0.5835357384
 H         -7.3767376786       -4.0503661494       -0.4518522961
 H         -4.9661062313       -3.7100841900       -0.8569236737
 H         -2.5287936482       -2.8153545013       -1.1333247968
 H         -0.4055266042       -1.5793012714       -1.0785782150
 H         -1.4972281377        2.3511749794       -1.5276376997
 H         -1.4851313713        4.8157036584       -1.5515035810
 H          0.0372399937        6.0615865959       -0.0587660133
 H          1.5411706093        4.8309466952        1.4655243598
 H          1.5127307856        2.3669628358        1.5057845660
 H          0.4438898663       -1.4976283982        1.2678920357
 H          2.5802826665       -2.7118372793        1.3610671592
 H          2.2678586458        1.6361043689       -1.0477549972
 H          4.6876340901        2.5654068235       -0.5973597156
 H          5.3955726213        1.6336508041        0.7279680207
 H          6.3605814344        2.0029738283       -0.7044068717
 H          4.1556949602        1.4020810227       -2.8092693865
 H          4.5014977708       -0.3220665773       -2.9925683802
 H          5.8285872009        0.8412680613       -2.9144735071
 H          7.6789005635       -0.1917002664       -1.3625526497
 H          8.7422213160       -2.2586243121       -0.5313234237
 H          7.4324630208       -3.9396202703        0.6867413096
 H          5.0263159010       -3.5954882675        1.1134580208
 H         -2.3116760360        1.7061546522        0.9463781172
  68
        -95.78636812
 C         -4.6897223564        0.1572908167        2.7908792834
 C         -4.8109223339        0.3441077584        1.2733309690
 C         -5.2111603764        1.7850576593        0.9455074630
 C         -5.7786831973       -0.6590987592        0.6872403779
 C         -7.1294928069       -0.7710762127        0.8928419969
 C         -7.8323212260       -1.7857710094        0.2424242646
 C         -7.1719537549       -2.6761127282       -0.6004936781
 C         -5.8140151402       -2.5803659415       -0.8152177154
 C         -5.0987418041       -1.5616489767       -0.1716229476
 C         -3.7254661772       -1.1988361535       -0.2272741155
 C         -2.6328882025       -1.7515960176       -0.9247224594
 C         -1.4047500785       -1.1548762912       -0.8374872697
 C         -1.2198227578        0.0255108744       -0.0791066427
 N         -0.0032545723        0.6796988598       -0.0613374295
 C          0.0007075350        2.0803249952       -0.0003315284
 C         -0.9340014734        2.8162817935       -0.7328925132
 C         -0.9290469848        4.1947268246       -0.6724781857
 C          0.0039313931        4.8594209271        0.1106703473
 C          0.9338098256        4.1319957799        0.8396537867
 C          0.9354398228        2.7529593398        0.7907748815
 C          1.1986994995        0.0060041966       -0.0811688918
 C          1.3332678122       -1.2618166269        0.5391019315
 C          2.5488468758       -1.8801511875        0.6245817002
 C          3.6881153057       -1.2562788395        0.0728990570
 C          3.5401413036       -0.0088388103       -0.6061671063
 C          2.3345827321        0.6096638125       -0.6869714076
 C          4.8767155180        0.4601871392       -1.1338887526
 C          5.2408024436        1.8372110979       -0.5699039080
 C          4.8826528564        0.4946781233       -2.6665711597
 C          5.8002989093       -0.6185097935       -0.6137808105
 C          7.1626226028       -0.7124080383       -0.7284004775
 C          7.8178579374       -1.8055902481       -0.1591868743
 C          7.0982557193       -2.7914802756        0.5128205852
 C          5.7284984921       -2.7154931584        0.6349273457
 C          5.0594501995       -1.6181317332        0.0724801991
 C         -2.3096440200        0.5622092019        0.6554731320
 C         -3.5229420323       -0.0443927029        0.5848236711
 H         -3.9293072814        0.8223506685        3.1945002598
 H         -4.4120680811       -0.8693466251        3.0201127047
 H         -5.6389518231        0.3757995489        3.2743262924
 H         -6.1702118676        2.0235495580        1.3988273916
 H         -4.4652462166        2.4804619701        1.3241842673
 H         -5.2942875016        1.9157389933       -0.1313421301
 H         -7.6526801801       -0.0864573170        1.5453240077
 H         -8.8971284364       -1.8806807709        0.3933180790
 H         -7.7389964754       -3.4526237493       -1.0940408150
 H         -5.3073248814       -3.2716846786       -1.4719889881
 H         -2.7718336565       -2.6282119832       -1.5388816442
 H         -0.5644626029       -1.5448438334       -1.3933463447
 H         -1.6478412370        2.2943106953       -1.3526536505
 H         -1.6520521724        4.7555251079       -1.2454291750
 H          0.0059187245        5.9375225609        0.1529873069
 H          1.6571469017        4.6435127474        1.4567004420
 H          1.6449647625        2.1819291944        1.3708971428
 H          0.4607739381       -1.7035857388        0.9976842687
 H          2.6460292990       -2.8266996852        1.1339765800
 H          2.2131495968        1.5457552079       -1.2118151304
 H          4.5251771465        2.5851037416       -0.9046696226
 H          5.2337038206        1.8102352159        0.5177659555
 H          6.2331932537        2.1315550702       -0.9026409111
 H          4.1575738212        1.2187364121       -3.0318406767
 H          4.6276175393       -0.4852306105       -3.0643869120
 H          5.8683983802        0.7713354680       -3.0328684011
 H          7.7322614839        0.0456428883       -1.2470852693
 H          8.8913152156       -1.8874244708       -0.2398089021
 H          7.6293472114       -3.6274994337        0.9454171842
 H          5.1753910414       -3.4803469215        1.1593022809
 H         -2.1463980198        1.4328208517        1.2735430030
