  68
  -95.3395632992000       0.218685267625601      !
 C         -3.3946465115       -1.9988298783       -2.2762901176
 C         -3.5591427679       -1.8873599084       -0.7571402268
 C         -2.9208967432       -3.0955845249       -0.0631288676
 C         -5.0142432227       -1.7378018797       -0.3727025063
 C         -6.0542376477       -2.6063229409       -0.5816309805
 C         -7.3304090597       -2.2548769181       -0.1399172981
 C         -7.5478391389       -1.0397287390        0.5048966416
 C         -6.5142671498       -0.1553830052        0.7239404067
 C         -5.2282483063       -0.4990092964        0.2857315735
 C         -3.9926270699        0.1953806325        0.3732780034
 C         -3.6600313877        1.4502335272        0.9222052312
 C         -2.3675301425        1.8892851868        0.8585869173
 C         -1.3533210884        1.1027024498        0.2585324801
 N         -0.0430396654        1.5400710184        0.2458794741
 C          0.2337074809        2.9053681304        0.1151803021
 C         -0.5404803121        3.7033847372       -0.7302755890
 C         -0.2631171060        5.0495483896       -0.8555828905
 C          0.7860148855        5.6185422451       -0.1485232299
 C          1.5584340092        4.8290387599        0.6908457851
 C          1.2880073153        3.4826464578        0.8271329284
 C          0.9965425943        0.6396253970        0.3665196828
 C          0.8419823385       -0.5296108163        1.1552799402
 C          1.8526594425       -1.4394652125        1.2794526583
 C          3.0696614462       -1.2197307634        0.6026386263
 C          3.2268587172       -0.0432433691       -0.1919644643
 C          2.2250248617        0.8666545902       -0.3104775175
 C          4.6047293579       -0.0178876656       -0.8147486662
 C          5.3934450203        1.2121525309       -0.3529703593
 C          4.5236033759       -0.0532261507       -2.3447087845
 C          5.2066057300       -1.2949107262       -0.2710818540
 C          6.4578790661       -1.8140072987       -0.4790008687
 C          6.7997298886       -3.0243583041        0.1265109091
 C          5.8839992599       -3.6979432005        0.9318598309
 C          4.6228687341       -3.1906022206        1.1532380428
 C          4.2692477938       -1.9742577209        0.5512572696
 C         -1.6860804001       -0.1637156301       -0.2918558347
 C         -2.9733941399       -0.5952532347       -0.2341495732
 H         -2.3405020293       -2.0442549963       -2.5403906901
 H         -3.8404726039       -1.1357908434       -2.7660655446
 H         -3.8851062306       -2.8970727078       -2.6434970745
 H         -3.3878367437       -4.0166433916       -0.4031466441
 H         -1.8568647980       -3.1409734381       -0.2842803407
 H         -3.0495193478       -3.0197931163        1.0143099352
 H         -5.8995240495       -3.5518582921       -1.0817459217
 H         -8.1568694577       -2.9308820807       -0.2997505075
 H         -8.5456438175       -0.7908263182        0.8373562298
 H         -6.6863802203        0.7853755430        1.2252929816
 H         -4.4192828435        2.0499441639        1.4003645217
 H         -2.0906579116        2.8349550409        1.3020449118
 H         -1.3453337208        3.2520254759       -1.2914138750
 H         -0.8636369092        5.6580350634       -1.5148789790
 H          1.0000657647        6.6711606301       -0.2505096873
 H          2.3715956930        5.2680939399        1.2491261952
 H          1.8752244719        2.8673472331        1.4925546923
 H         -0.0837743737       -0.6633325903        1.6951946357
 H          1.7318610207       -2.3103271502        1.9054850804
 H          2.3277986722        1.7446050686       -0.9313571956
 H          4.9081391334        2.1240792753       -0.6943419908
 H          5.4510911556        1.2333099633        0.7332781917
 H          6.4042438085        1.1840522732       -0.7527505444
 H          4.0306887573        0.8411317744       -2.7195746174
 H          3.9592544737       -0.9246856535       -2.6697296823
 H          5.5214684426       -0.1074500305       -2.7733586125
 H          7.1778105912       -1.3028744411       -1.1023937530
 H          7.7821755530       -3.4429636017       -0.0316140460
 H          6.1729629604       -4.6338495248        1.3886907814
 H          3.9158955981       -3.7145586568        1.7790714618
 H         -0.9135816978       -0.7412778415       -0.7771887493
  68
  -95.3395404317000       0.213456975293852      !
 C         -4.9448359226        0.7934808123        2.2386010231
 C         -4.9039052511        0.6851040682        0.7105443563
 C         -5.3073686040        2.0182053019        0.0716566256
 C         -5.7778366262       -0.4478007039        0.2198630551
 C         -7.1331793813       -0.6073229800        0.3478992488
 C         -7.7353922551       -1.7479935186       -0.1852149353
 C         -6.9724195179       -2.7124086120       -0.8395484490
 C         -5.6094757876       -2.5683502224       -0.9778917964
 C         -4.9940749956       -1.4260305140       -0.4466594422
 C         -3.6370658385       -1.0112933151       -0.4411998904
 C         -2.4727127263       -1.6063412646       -0.9672801688
 C         -1.2698687340       -0.9767536435       -0.8156713444
 C         -1.1725495576        0.2725477441       -0.1527216130
 N          0.0526479747        0.8925125007       -0.0065398956
 C          0.1266384961        2.2895717560       -0.0394108572
 C         -0.6829800639        3.0173391787       -0.9152512269
 C         -0.6095051230        4.3951138729       -0.9412756922
 C          0.2695288359        5.0669625000       -0.1041296023
 C          1.0771982053        4.3479189177        0.7650712702
 C          1.0091114301        2.9700359618        0.8032507248
 C          1.2036116341        0.1501438205        0.1681893761
 C          1.1626070386       -1.0771218749        0.8764171118
 C          2.2867361064       -1.8343889329        1.0474519528
 C          3.5072070169       -1.3956079842        0.4964037149
 C          3.5502018110       -0.1593524642       -0.2155940402
 C          2.4354345932        0.6008264679       -0.3766410227
 C          4.9527889876        0.1041695148       -0.7155412785
 C          5.5169597332        1.3983759037       -0.1196002753
 C          4.9914968245        0.1623760002       -2.2465180917
 C          5.6922042504       -1.1094489916       -0.1973343607
 C          7.0170806762       -1.4338623124       -0.3333707512
 C          7.4849652649       -2.6235741664        0.2262800124
 C          6.6206257899       -3.4711262394        0.9153677072
 C          5.2868347457       -3.1601481209        1.0633294387
 C          4.8061231436       -1.9675301089        0.5050090333
 C         -2.3457069917        0.8775886236        0.3720198585
 C         -3.5393828547        0.2443067312        0.2308951771
 H         -4.2616713175        1.5671880606        2.5820886053
 H         -4.6543222011       -0.1532251570        2.6890002543
 H         -5.9496307317        1.0419229796        2.5718361316
 H         -6.3172507463        2.2891061714        0.3699636367
 H         -4.6275190882        2.8085467697        0.3826573638
 H         -5.2761762625        1.9381884006       -1.0129697462
 H         -7.7368902957        0.1327651201        0.8538638049
 H         -8.8019718109       -1.8844236796       -0.0890509530
 H         -7.4627341586       -3.5865644298       -1.2440178411
 H         -5.0212636474       -3.3176585764       -1.4863656265
 H         -2.5374408446       -2.5427146210       -1.4999570892
 H         -0.3719583840       -1.4014988303       -1.2400482741
 H         -1.3528420874        2.4888316579       -1.5771801341
 H         -1.2352792638        4.9489911622       -1.6249757530
 H          0.3250093197        6.1442319775       -0.1292475190
 H          1.7583166161        4.8659707477        1.4234357590
 H          1.6229605231        2.4068890320        1.4904253095
 H          0.2246959855       -1.3816982832        1.3171826149
 H          2.2475690652       -2.7529941776        1.6125240492
 H          2.4553744974        1.5241139874       -0.9369577731
 H          4.9328511755        2.2544183591       -0.4507738424
 H          5.4866628755        1.3548655611        0.9672235357
 H          6.5490560652        1.5384044583       -0.4317890891
 H          4.4031753019        1.0024677046       -2.6088455675
 H          4.5847703163       -0.7551469666       -2.6663867175
 H          6.0154794659        0.2780281055       -2.5935430425
 H          7.6985971339       -0.7858586702       -0.8661700099
 H          8.5259889639       -2.8900088005        0.1231405767
 H          7.0076494219       -4.3865659273        1.3395527241
 H          4.6196095770       -3.8190149173        1.5987729977
 H         -2.2608662199        1.8154959960        0.9010522213
  68
  -95.3390006958000       0.120577119773432      !
 C         -2.1527715528       -2.9286810779       -0.2842057297
 C         -3.0514952168       -1.8973316163        0.4056354321
 C         -3.1386082191       -2.1899356490        1.9072488000
 C         -4.4259920389       -1.8529043882       -0.2234329667
 C         -5.3633711416       -2.8487993813       -0.3153719307
 C         -6.5817951816       -2.5778198836       -0.9395118761
 C         -6.8446532262       -1.3138641244       -1.4625171056
 C         -5.9140244577       -0.3014891201       -1.3797650262
 C         -4.6857705606       -0.5631349333       -0.7567238729
 C         -3.5545677678        0.2643339166       -0.5321090471
 C         -3.3009415624        1.6143150454       -0.8519529568
 C         -2.1058304715        2.1749607392       -0.4991901571
 C         -1.1116290225        1.4232266895        0.1752629289
 N          0.1094494168        1.9901140610        0.4830844651
 C          0.1837494933        3.3439753503        0.8282102101
 C          1.2614148214        4.1217056930        0.3990137779
 C          1.3337226731        5.4549714892        0.7483323238
 C          0.3383807332        6.0318837426        1.5231987163
 C         -0.7350999756        5.2635219294        1.9487581351
 C         -0.8165655945        3.9285776466        1.6078766487
 C          1.2576557988        1.2230585754        0.4605516399
 C          2.2995808630        1.4601208520        1.3918231666
 C          3.4181633321        0.6763960620        1.4186630159
 C          3.5436717469       -0.3839675506        0.4971576361
 C          2.4996397301       -0.6181328118       -0.4462853086
 C          1.3829639751        0.1552670264       -0.4696289889
 C          2.8574764943       -1.7855936950       -1.3383709228
 C          2.9700558203       -1.3489408231       -2.8028115326
 C          1.8332753357       -2.9166874481       -1.1999497957
 C          4.2046027704       -2.1900474925       -0.7824828528
 C          5.0302856982       -3.2089874350       -1.1809814092
 C          6.2438190951       -3.3974826789       -0.5179044847
 C          6.6138134026       -2.5632372420        0.5345116889
 C          5.7965945226       -1.5344899421        0.9484326356
 C          4.5742140006       -1.3372829812        0.2907333259
 C         -1.3650478323        0.0620494681        0.4969874361
 C         -2.5569813843       -0.4911124169        0.1521739338
 H         -1.1501245894       -2.8960676573        0.1355908691
 H         -2.0936955273       -2.7203115658       -1.3504701461
 H         -2.5548094133       -3.9299586397       -0.1503321483
 H         -2.1495199169       -2.1514223365        2.3582571809
 H         -3.7740772844       -1.4546398237        2.3961238755
 H         -3.5601930245       -3.1780927364        2.0745831864
 H         -5.1726166568       -3.8333166868        0.0878159082
 H         -7.3277930021       -3.3543520417       -1.0164883892
 H         -7.7961061522       -1.1292922052       -1.9407879303
 H         -6.1209747521        0.6765504771       -1.7880020148
 H         -4.0417876771        2.1926119755       -1.3824766317
 H         -1.8851498092        3.1990520096       -0.7642043365
 H          2.0253131495        3.6710351400       -0.2172232842
 H          2.1679320993        6.0501440676        0.4087142083
 H          0.3992131413        7.0744892420        1.7943864182
 H         -1.5090404177        5.7059470828        2.5577153593
 H         -1.6410259200        3.3213150964        1.9511118838
 H          2.1750288259        2.2564592357        2.1114578759
 H          4.1949969306        0.8551235928        2.1461366056
 H          0.6023197940        0.0046605917       -1.2001024168
 H          2.0059618250       -1.0042313277       -3.1699690750
 H          3.6900679702       -0.5390134462       -2.8982948417
 H          3.3010208657       -2.1811922379       -3.4194436478
 H          1.7568524553       -3.2269600067       -0.1597831583
 H          2.1363494877       -3.7751467225       -1.7944717798
 H          0.8551431344       -2.5843931185       -1.5399841831
 H          4.7560184746       -3.8627533073       -1.9967905130
 H          6.9021085998       -4.1965631304       -0.8238235679
 H          7.5587854930       -2.7302124317        1.0317767484
 H          6.0860315579       -0.8906411102        1.7655550823
 H         -0.6176053340       -0.4936713728        1.0429470827
  68
  -95.3389466506000       0.113874753906072      !
 C         -5.0470352577        1.2360864443        1.9639309251
 C         -4.9386942482        0.8238193058        0.4937298191
 C         -5.2702626964        2.0126752117       -0.4176067937
 C         -5.8255970634       -0.3592676153        0.1755059232
 C         -7.1856692963       -0.4732360975        0.2999688745
 C         -7.8017447286       -1.6730578638       -0.0593087233
 C         -7.0473937486       -2.7406429770       -0.5409853092
 C         -5.6802761193       -2.6424273627       -0.6770457250
 C         -5.0503013027       -1.4417775733       -0.3185918705
 C         -3.6851104308       -1.0574868029       -0.3425228266
 C         -2.5238188616       -1.7359114174       -0.7654311614
 C         -1.3094516601       -1.1182086931       -0.6665601563
 C         -1.1896027007        0.1927092063       -0.1369536616
 N          0.0434061391        0.7978891974       -0.0222214886
 C          0.1339840360        2.1958572833       -0.1088107399
 C         -0.6093430880        2.8964645883       -1.0607126529
 C         -0.5140373078        4.2714928683       -1.1356451159
 C          0.3208831660        4.9652450236       -0.2718645406
 C          1.0633245381        4.2719941864        0.6730590423
 C          0.9729957595        2.8976016740        0.7594049302
 C          1.2017022814        0.0721715485        0.1726954423
 C          1.1914717522       -1.1385866625        0.9093861044
 C          2.3333752047       -1.8680364172        1.0903280575
 C          3.5450446099       -1.4105745716        0.5355725928
 C          3.5602469478       -0.1814895776       -0.1886256837
 C          2.4260150042        0.5426945874       -0.3732985910
 C          4.9620525906        0.1287715755       -0.6616928625
 C          5.4674326663        1.4332984483       -0.0346308466
 C          5.0348313622        0.2104467210       -2.1895555155
 C          5.7289225919       -1.0638538271       -0.1356125725
 C          7.0649898732       -1.3470280294       -0.2535895212
 C          7.5618577228       -2.5214621998        0.3129556326
 C          6.7143107172       -3.3952113824        0.9896412245
 C          5.3698025337       -3.1242081186        1.1213699349
 C          4.8602316615       -1.9461699917        0.5583445939
 C         -2.3624084722        0.8841974312        0.2731124108
 C         -3.5704762996        0.2746516853        0.1586911674
 H         -4.3527721075        2.0444226939        2.1827787027
 H         -4.8141288735        0.3918760863        2.6091764029
 H         -6.0559945309        1.5748594591        2.1865512408
 H         -6.2853424087        2.3568003678       -0.2347561279
 H         -4.5826287494        2.8351492104       -0.2323841602
 H         -5.1876917220        1.7172480361       -1.4615851486
 H         -7.7825568626        0.3469678256        0.6730605545
 H         -8.8720146460       -1.7751438229        0.0383637975
 H         -7.5482463135       -3.6595254544       -0.8110155735
 H         -5.0991391805       -3.4720069496       -1.0512855654
 H         -2.6004716624       -2.7265624437       -1.1869489255
 H         -0.4183757724       -1.6069798063       -1.0317717353
 H         -1.2451024737        2.3496882891       -1.7412861900
 H         -1.0882486365        4.8055779803       -1.8777421169
 H          0.3932475746        6.0399269346       -0.3351287666
 H          1.7103268159        4.8071569661        1.3516799007
 H          1.5360586955        2.3535250492        1.5032292512
 H          0.2643775703       -1.4540728916        1.3650112721
 H          2.3145219297       -2.7767974049        1.6723660752
 H          2.4281405054        1.4553008542       -0.9508122776
 H          4.8593803095        2.2726644960       -0.3653536074
 H          5.4154339001        1.3713871831        1.0503947678
 H          6.5002124119        1.6151510098       -0.3218931447
 H          4.4203264749        1.0305182413       -2.5546765532
 H          4.6776546955       -0.7169494606       -2.6321482845
 H          6.0610659807        0.3747158569       -2.5094588534
 H          7.7325571886       -0.6784335325       -0.7785241466
 H          8.6119015539       -2.7559440791        0.2237090974
 H          7.1230026568       -4.2997250369        1.4173658012
 H          4.7165531696       -3.8038707463        1.6479896014
 H         -2.2704552955        1.8750630550        0.6925407023
  68
  -95.3389375301000       0.112781004881360      !
 C         -2.4159058083       -2.9597886366       -0.5986822534
 C         -3.2050919397       -1.9533337536        0.2459629588
 C         -3.1895719564       -2.3698829182        1.7202613425
 C         -4.6216960075       -1.8012192597       -0.2633613316
 C         -5.6179346705       -2.7394795602       -0.3388466351
 C         -6.8669331331       -2.3650461752       -0.8378559492
 C         -7.1016588347       -1.0565150143       -1.2552737615
 C         -6.1120807639       -0.1012335445       -1.1899272573
 C         -4.8528261725       -0.4670195637       -0.6915057125
 C         -3.6686461015        0.2883701665       -0.5030190026
 C         -3.3738931396        1.6434066814       -0.7615765465
 C         -2.1410626600        2.1325214622       -0.4400088608
 C         -1.1479762878        1.3057273226        0.1469902283
 N          0.0759472252        1.8363521572        0.4861195442
 C          0.1692866469        3.1933790471        0.8364966669
 C          1.2081366958        3.9703621186        0.3219234384
 C          1.3015494078        5.3060785203        0.6567818199
 C          0.3705566741        5.8798926874        1.5100345526
 C         -0.6596584915        5.1082685035        2.0272121919
 C         -0.7666339177        3.7727582922        1.6936415376
 C          1.2322858586        1.0809735278        0.4949588129
 C          2.2225198914        1.3355291968        1.4765404917
 C          3.3769998780        0.6076591491        1.5248532032
 C          3.5976233056       -0.3975473426        0.5627916508
 C          2.6092125897       -0.6450067490       -0.4355952641
 C          1.4446184869        0.0572951938       -0.4656559747
 C          3.0948978887       -1.7162289026       -1.3874872996
 C          3.2823914721       -1.1389909331       -2.7963026291
 C          2.1438994615       -2.9152214559       -1.4264008241
 C          4.4328748306       -2.0794094220       -0.7812218481
 C          5.3429735671       -3.0171654257       -1.1962515141
 C          6.5338237444       -3.1681092615       -0.4844106450
 C          6.7984459484       -2.3780131625        0.6316867315
 C          5.8959239015       -1.4304064317        1.0621024993
 C          4.6960538854       -1.2724256700        0.3553332065
 C         -1.4327208075       -0.0685693780        0.3779492770
 C         -2.6628534068       -0.5526169121        0.0625166379
 H         -1.3794029422       -2.9982932566       -0.2707493675
 H         -2.4409084953       -2.6695365287       -1.6470351472
 H         -2.8491167310       -3.9526728444       -0.5045252309
 H         -3.6503888940       -3.3475473542        1.8396223164
 H         -2.1679147944       -2.4185391334        2.0901573642
 H         -3.7439859228       -1.6504087820        2.3190630944
 H         -5.4523477872       -3.7576429049       -0.0162063920
 H         -7.6597466001       -3.0953089831       -0.8982457293
 H         -8.0783494921       -0.7918260950       -1.6349982762
 H         -6.2962213926        0.9123089099       -1.5136574735
 H         -4.1160036697        2.2806549528       -1.2173471134
 H         -1.8919668419        3.1616154903       -0.6546826029
 H          1.9241573353        3.5159026932       -0.3469861748
 H          2.1010718918        5.9041590711        0.2462742938
 H          0.4478492141        6.9240181114        1.7709081585
 H         -1.3802227456        5.5492720860        2.6993185055
 H         -1.5598644076        3.1625399888        2.0997789473
 H          2.0285018781        2.1009006871        2.2141898219
 H          4.1128098747        0.7945271522        2.2917979337
 H          0.6996716177       -0.1040275778       -1.2307471793
 H          3.7574600875       -1.8726164181       -3.4433993631
 H          2.3215148674       -0.8637070385       -3.2254151640
 H          3.9135382618       -0.2535071623       -2.7560533801
 H          1.1688080185       -2.6135766003       -1.8027946619
 H          2.0210171369       -3.3295020468       -0.4278403764
 H          2.5424937792       -3.6908911809       -2.0758718152
 H          5.1527841624       -3.6354135351       -2.0622007520
 H          7.2582523096       -3.9025101230       -0.8028723011
 H          7.7285112855       -2.5140092410        1.1652316904
 H          6.1031486882       -0.8197598510        1.9282641079
 H         -0.6806682629       -0.6875357230        0.8436922515
  68
  -95.3388579588000       0.103673443137486      !
 C         -2.8933927248       -1.8623035268       -2.3208584466
 C         -3.0308278773       -1.8123769674       -0.7963855868
 C         -2.2750117964       -2.9828768214       -0.1566535469
 C         -4.4822834795       -1.8039757643       -0.3708537564
 C         -5.4592493995       -2.7319664721       -0.6201650532
 C         -6.7491079550       -2.5068481534       -0.1356763149
 C         -7.0414145928       -1.3576497800        0.5961127961
 C         -6.0718786167       -0.4160189411        0.8597090591
 C         -4.7729101407       -0.6297878439        0.3743851419
 C         -3.6005914569        0.1612640713        0.4631331325
 C         -3.3565173880        1.4126000293        1.0690698402
 C         -2.1298537757        1.9952946406        0.9309476080
 C         -1.0918734202        1.3646998107        0.1974331446
 N          0.1240995695        1.9935330053        0.0310546761
 C          0.1705414065        3.3882126963       -0.0838481204
 C         -0.8219383043        4.0705651420       -0.7907790137
 C         -0.7722278533        5.4454702599       -0.8976839176
 C          0.2612961256        6.1575104206       -0.3069892157
 C          1.2507867885        5.4827923129        0.3928368081
 C          1.2111198616        4.1077546142        0.5067784738
 C          1.2900455250        1.2596628719       -0.0788177280
 C          2.3110711551        1.6717342732       -0.9695258140
 C          3.4325996433        0.9140163975       -1.1597046265
 C          3.5828313061       -0.2895088574       -0.4433092508
 C          2.5742434273       -0.6852138451        0.4829953116
 C          1.4481718928        0.0565865729        0.6583342927
 C          2.9744366216       -1.9738167869        1.1663695744
 C          1.9258283556       -3.0695933922        0.9580561557
 C          3.2118682071       -1.7412917447        2.6636570770
 C          4.2761533251       -2.2966791326        0.4664335638
 C          5.0979064626       -3.3820098545        0.6305705509
 C          6.2675600953       -3.4672199924       -0.1255389818
 C          6.6010521049       -2.4637630015       -1.0315812721
 C          5.7883634138       -1.3648207639       -1.2068903410
 C          4.6087742051       -1.2724047772       -0.4568284778
 C         -1.3196356682        0.0800938332       -0.3692787138
 C         -2.5438445581       -0.4932231787       -0.2399642411
 H         -1.8457112403       -1.8122120511       -2.6083878926
 H         -3.4196187511       -1.0242745899       -2.7727310525
 H         -3.3164138128       -2.7862797238       -2.7074673557
 H         -2.6739818767       -3.9293891310       -0.5133201315
 H         -1.2177601102       -2.9316538844       -0.4068489976
 H         -2.3801587489       -2.9492031169        0.9257061562
 H         -5.2472610657       -3.6269125198       -1.1878700052
 H         -7.5278332209       -3.2283312892       -0.3318525885
 H         -8.0480326244       -1.2069399742        0.9596755120
 H         -6.3019949988        0.4740259532        1.4261478362
 H         -4.1339811003        1.8978762687        1.6388528542
 H         -1.9207752734        2.9446882369        1.4027960493
 H         -1.6148932313        3.5090228932       -1.2620935670
 H         -1.5400318625        5.9646173937       -1.4512390570
 H          0.2956504152        7.2325398275       -0.3925897976
 H          2.0542974305        6.0332645507        0.8584192050
 H          1.9714391945        3.5773323060        1.0608912414
 H          2.1657414472        2.5819087011       -1.5334094884
 H          4.1909718831        1.2244579782       -1.8620122449
 H          0.6835868213       -0.2249319616        1.3672040663
 H          0.9829720386       -2.7838649834        1.4191597872
 H          1.7607354273       -3.2330758414       -0.1049433524
 H          2.2615120625       -4.0032010130        1.4028987480
 H          2.2894219583       -1.4330272367        3.1506961588
 H          3.9591400375       -0.9636113746        2.8072107311
 H          3.5681749397       -2.6544959541        3.1343594438
 H          4.8522612834       -4.1672899157        1.3313701470
 H          6.9205498213       -4.3187165908       -0.0066107800
 H          7.5128765669       -2.5528305967       -1.6049634258
 H          6.0490353414       -0.5892984692       -1.9116305500
 H         -0.5302714067       -0.3887685737       -0.9369683074
  68
  -95.3384784335000       6.938247226442780E-002 !
 C         -4.8524641805        0.4483374492        2.4616718433
 C         -4.8582847453        0.6325582539        0.9389861545
 C         -5.1498099570        2.0923894347        0.5813531957
 C         -5.8408903873       -0.3159631839        0.2899254324
 C         -7.2068473384       -0.3475257523        0.4024553798
 C         -7.9218708266       -1.3233973084       -0.2925501317
 C         -7.2587718185       -2.2559952480       -1.0861904909
 C         -5.8860435823       -2.2411082218       -1.2072966707
 C         -5.1579224859       -1.2619909150       -0.5182513941
 C         -3.7651261442       -0.9804151052       -0.4801783247
 C         -2.6617121715       -1.6003800883       -1.0997146957
 C         -1.4095071295       -1.0759375268       -0.9295671296
 C         -1.2079337787        0.0962765149       -0.1627975587
 N          0.0408804845        0.6783359169       -0.0628695658
 C          0.1229141804        2.0766854400       -0.0047311653
 C         -0.7145960895        2.8614859226       -0.8013638824
 C         -0.6328363472        4.2376310333       -0.7437000243
 C          0.2817529340        4.8514732918        0.1002861465
 C          1.1151983959        4.0754499955        0.8929995907
 C          1.0391716783        2.6984007686        0.8472975965
 C          1.1997223813       -0.0645695485        0.0013823180
 C          1.2168047468       -1.3342395477        0.6321441205
 C          2.3852565442       -2.0220276266        0.8022759375
 C          3.5942983223       -1.4692246050        0.3288524497
 C          3.5666938266       -0.2194791516       -0.3614431966
 C          2.4079113855        0.4679198396       -0.5262223823
 C          4.9615013393        0.1673605501       -0.7970728047
 C          5.3663641873        1.5242011082       -0.2123481249
 C          5.0743891889        0.1919943400       -2.3257944114
 C          5.7823482017       -0.9602472950       -0.2124219678
 C          7.1414503843       -1.1343165293       -0.2329537266
 C          7.6908301398       -2.2603971295        0.3822772704
 C          6.8702413259       -3.1983792061        1.0053536274
 C          5.5021712477       -3.0417094886        1.0328822532
 C          4.9388169946       -1.9106078207        0.4234435685
 C         -2.3120881836        0.7002755517        0.4940061693
 C         -3.5512297410        0.1652027717        0.3414460017
 H         -4.0837253146        1.0702908185        2.9151695255
 H         -4.6519376074       -0.5913404740        2.7116382496
 H         -5.8180926934        0.7249309813        2.8782786726
 H         -6.1219838217        2.3893199136        0.9671865454
 H         -4.3920225846        2.7453285670        1.0089043611
 H         -5.1511864176        2.2210637015       -0.4989401971
 H         -7.7323687178        0.3705127068        1.0159770871
 H         -8.9982430365       -1.3549755938       -0.2149815875
 H         -7.8353152340       -3.0010640476       -1.6158750791
 H         -5.3770518587       -2.9648971473       -1.8262168077
 H         -2.8095247216       -2.4711463707       -1.7200939555
 H         -0.5574885950       -1.5177724114       -1.4255342541
 H         -1.4137453276        2.3783189495       -1.4675957653
 H         -1.2807230073        4.8361860537       -1.3661779880
 H          0.3441563006        5.9278560332        0.1403338842
 H          1.8233780744        4.5476090628        1.5571984064
 H          1.6725410476        2.0904636997        1.4760254130
 H          0.2905204358       -1.7214209100        1.0306303016
 H          2.3915673492       -2.9694791596        1.3191679881
 H          2.3778924030        1.4062545208       -1.0601708132
 H          4.7205067172        2.3105643738       -0.5970973924
 H          5.2832329773        1.5043933524        0.8723180336
 H          6.3947804760        1.7579802765       -0.4767324000
 H          4.4198053475        0.9549289273       -2.7415739719
 H          4.7900793849       -0.7737668319       -2.7380986758
 H          6.0974464767        0.4082989326       -2.6240783405
 H          7.7888067095       -0.4140690913       -0.7128880885
 H          8.7606243877       -2.4053295913        0.3757866422
 H          7.3204424940       -4.0613275892        1.4752100092
 H          4.8704897575       -3.7696791647        1.5196438471
 H         -2.1406946142        1.5636516666        1.1199695831
  68
  -95.3381217376000       4.756896311776934E-002 !
 C         -1.9413970412       -2.8928445805       -0.0359242497
 C         -2.9274320660       -1.8645863782        0.5252667167
 C         -3.1114601265       -2.0754013820        2.0325009798
 C         -4.2548723674       -1.9122398690       -0.1965313946
 C         -5.1287744027       -2.9608811140       -0.3203334900
 C         -6.3102141639       -2.7775731044       -1.0399603947
 C         -6.6008789592       -1.5461106304       -1.6225356209
 C         -5.7348442984       -0.4808558441       -1.5068365214
 C         -4.5422278746       -0.6548691805       -0.7907197994
 C         -3.4671881315        0.2346584481       -0.5290729670
 C         -3.2547740915        1.5841968186       -0.8821064533
 C         -2.0960109620        2.2045724679       -0.5063839259
 C         -1.0966615934        1.5109346353        0.2193429368
 N          0.1189028057        2.1019867942        0.5097527094
 C          0.1993561132        3.4532715870        0.8428957855
 C          1.3148199126        4.2056053804        0.4655450201
 C          1.3919201368        5.5426683085        0.7981550472
 C          0.3640009530        6.1506508694        1.5036056656
 C         -0.7458206410        5.4081375154        1.8789788341
 C         -0.8322006386        4.0690697720        1.5563346608
 C          1.2571043598        1.3164203798        0.4647331740
 C          2.2862880353        1.4651961947        1.4260071206
 C          3.3530984440        0.6107413157        1.4553435204
 C          3.4412952881       -0.4233861461        0.4999663580
 C          2.4272216147       -0.5440501234       -0.4955863132
 C          1.3553620664        0.2894407997       -0.5127637906
 C          2.7532670222       -1.6801180721       -1.4379395800
 C          3.0149627700       -1.1522956387       -2.8535239970
 C          1.6358714714       -2.7262476534       -1.4615501977
 C          4.0204458331       -2.2282349819       -0.8218181672
 C          4.7703571470       -3.3066270056       -1.2136160723
 C          5.9153789419       -3.6359542489       -0.4872501182
 C          6.2948650584       -2.8789421199        0.6186133159
 C          5.5549385923       -1.7898355283        1.0243473805
 C          4.3999296620       -1.4527282923        0.3052772776
 C         -1.3162545689        0.1561736977        0.5906103873
 C         -2.4746333547       -0.4530465861        0.2300670179
 H         -0.9698161772       -2.7800533044        0.4386288300
 H         -1.8246633562       -2.7540090699       -1.1083913781
 H         -2.3031048519       -3.9022006074        0.1442032242
 H         -3.5055053592       -3.0697479476        2.2283403799
 H         -2.1592838012       -1.9690450338        2.5475213529
 H         -3.8081625979       -1.3414950908        2.4318713682
 H         -4.9145189879       -3.9207139528        0.1278542809
 H         -7.0048678184       -3.5972546434       -1.1458053736
 H         -7.5226325756       -1.4296818557       -2.1749115182
 H         -5.9633013535        0.4710878008       -1.9625017945
 H         -3.9978388856        2.1150464527       -1.4573024216
 H         -1.9049666904        3.2279146276       -0.7965484999
 H          2.1033507469        3.7323935318       -0.1007097605
 H          2.2552668758        6.1173081804        0.4979487258
 H          0.4276654206        7.1969177247        1.7596668983
 H         -1.5453493921        5.8746900714        2.4345842821
 H         -1.6848508538        3.4822418388        1.8643044884
 H          2.1878506957        2.2437463880        2.1690817386
 H          4.1168932922        0.7145874862        2.2107897502
 H          0.5871388789        0.2152133286       -1.2679068505
 H          3.8070923827       -0.4067691219       -2.8354176951
 H          3.3192653115       -1.9653609496       -3.5082805556
 H          2.1147080274       -0.6952631930       -3.2584300037
 H          1.9069869210       -3.5549665637       -2.1109965695
 H          0.7127491381       -2.2836270675       -1.8274893548
 H          1.4645485656       -3.1142689851       -0.4599675253
 H          4.4859786976       -3.9017367831       -2.0698566203
 H          6.5118249620       -4.4851804775       -0.7848027232
 H          7.1853203904       -3.1553004200        1.1652433576
 H          5.8517464992       -1.2072724315        1.8837810496
 H         -0.5670414474       -0.3496806618        1.1809110852
