59
 energy: -100.701108161294 gnorm: 0.000070035740 xtb: 6.7.1 (edcfbbe)
Br           6.09131767983687       -4.13705183615992       -1.30514886835209
C            4.73627370915502       -2.85602343444636       -0.90657766521864
C            3.40094687547663       -3.23157287107176       -1.05059168220576
C            2.38801421593856       -2.33895268503724       -0.76744087757495
C            2.73930988253529       -1.06661269044041       -0.33082737889560
C            4.09953189727599       -0.68529638689976       -0.21109241668704
C            5.11033902436685       -1.59083898087340       -0.49718148898395
C            4.09789320950527        0.68620456358289        0.21066258828835
C            5.10650914530309        1.59347215994733        0.49902880998307
C            4.72936502916838        2.85796973704025        0.90772131141516
Br           6.08130724067171        4.14123740849579        1.30959739412798
C            3.39308448100802        3.23119486167760        1.04886763304669
C            2.38232081990071        2.33683219005422        0.76348897263884
C            2.73676731477959        1.06513227948446        0.32756968882774
N            1.93454832908023       -0.00144252902814       -0.00248813894690
C            0.52971933656371       -0.00279719096360       -0.00285673503295
C           -0.17482480781532        0.99753952699540       -0.68056800080419
C           -1.54578896603627        0.99980671620140       -0.67901379423898
C           -2.26825022822816       -0.00453180166682       -0.00206735063508
C           -3.68607249034147       -0.00507562010612       -0.00122481655821
N           -4.37444953508524        0.96289770221188       -0.65819637422766
C           -5.67709380147828        0.95565060567313       -0.64289940736418
C           -6.41591764171736        1.99901889808955       -1.33578087109708
C           -5.73732844979536        3.01142035541659       -2.01709547474798
C           -6.44465311291495        3.99843597520655       -2.67184363908133
C           -7.83208431987848        3.99018583849276       -2.65669076228602
C           -8.51170338614393        2.98769824965738       -1.98165228016131
C           -7.81176339768597        1.99636568003267       -1.32387208916669
N           -6.37575592574015       -0.00605238363305        0.00045485012928
C           -5.67556659209484       -0.96735191118277        0.64302628946614
C           -6.41263518891434       -2.01131492439793        1.33668481441991
C           -5.73241988022295       -3.02229936623748        2.01852789950989
C           -6.43816820585903       -4.01006721456836        2.67382523531314
C           -7.82561928749504       -4.00403506602882        2.65869931939567
C           -8.50684900483773       -3.00293302262563        1.98321238161292
C           -7.80850591583541       -2.01081813570916        1.32492726496235
N           -4.37289248035417       -0.97340785078836        0.65656281108124
C           -1.54416201879178       -1.00821397360225        0.67411462012548
C           -0.17320607572321       -1.00423229912055        0.67492275132929
H            3.16455431619624       -4.22791306936408       -1.39006415716378
H            1.35477511597921       -2.62114353167957       -0.89364704046971
H            6.14978267754757       -1.31764772838633       -0.40734005626518
H            6.14661624259082        1.32206747429112        0.41149117371978
H            3.15421655547463        4.22710968860346        1.38785548525692
H            1.34832817060986        2.61723488533820        0.88747060263870
H            0.37336555285503        1.75354423793423       -1.22380870318520
H           -2.09700954574484        1.76326179353654       -1.20518718335870
H           -4.65825801404604        3.00438605031924       -2.02017324579500
H           -5.91661856968139        4.78009161096294       -3.19800929095090
H           -8.38224738552204        4.76438040621798       -3.17060305303908
H           -9.59174547260998        2.98193911341357       -1.97023182105947
H           -8.32688114936858        1.20983902937141       -0.79408585430507
H           -4.65335808180155       -3.01354448257580        2.02160486560321
H           -5.90887776948034       -4.79059841054100        3.20040416233115
H           -8.37454405895312       -4.77888005034360        3.17296064912306
H           -9.58690175158855       -2.99890551843120        1.97180541923230
H           -8.32489349222603       -1.22536382978064        0.79478230021105
H           -2.09412921232184       -1.77243307154650        1.20049065212697
H            0.37622733584558       -1.75961687930094        1.21776915148858
