59
 energy: -100.778022315335 gnorm: 0.000056988013 xtb: 6.7.1 (edcfbbe)
Br           8.07362250132393       -3.56261301306207       -2.47340145320240
C            6.71697919826753       -2.45965811480823       -1.70871443715265
C            5.38281709918388       -2.78046561734081       -1.95236354879451
C            4.36793372022160       -2.01444254875965       -1.41582840933903
C            4.71717533192869       -0.92758664216261       -0.62463355249529
C            6.07441988067554       -0.59388729120547       -0.40256521709115
C            7.08797536158995       -1.37091881736438       -0.94675933334791
C            6.07444394668564        0.59378969318998        0.40246325656289
C            7.08803156464679        1.37080463047894        0.94662107722212
C            6.71708043357565        2.45955107565564        1.70858789991711
Br           8.07376914906664        3.56248431108181        2.47322562405107
C            5.38293228499193        2.78038141559150        1.95228334680260
C            4.36801716353796        2.01437495640457        1.41578453616429
C            4.71721280527981        0.92751227585624        0.62457870631587
N            3.91079643058157       -0.00003056487826       -0.00001276556663
C            2.50785509649424       -0.00001698625110        0.00000651065673
C            1.80989398945692        1.15671455684710       -0.34077518314081
C            0.43100097196021        1.15589786348248       -0.33576189528114
C           -0.27099220948261        0.00000647863062        0.00003200776383
C           -1.73472266049513        0.00001806740797        0.00004106967321
N           -2.35556258708042        1.15015333474261       -0.23946510361755
C           -3.68611031118402        1.10612846343623       -0.22558892702295
C           -4.41776502577646        2.34790176578545       -0.47230475207898
C           -3.72594174762388        3.53459785873685       -0.70810051177827
C           -4.42056700695314        4.70591657555781       -0.93847326679659
C           -5.80690861297257        4.70429057712943       -0.93533786401498
C           -6.49990452641499        3.52660565669054       -0.70119203569857
C           -5.81145602310565        2.35167750466384       -0.47051919601062
N           -4.38843421485138        0.00003147611647        0.00001801030110
C           -3.68612540580735       -1.10607050430451        0.22564760044384
C           -4.41779747122729       -2.34783375100888        0.47236271641860
C           -3.72599105195075       -3.53451434085629        0.70828587803598
C           -4.42063274463486       -4.70582403645798        0.93865504684385
C           -5.80697405031114       -4.70420484186251        0.93538719153639
C           -6.49995325797972       -3.52653540677840        0.70111399100297
C           -5.81148830378515       -2.35161570352507        0.47044720424454
N           -2.35557832101174       -1.15010886392469        0.23954732981453
C            0.43098732863236       -1.15589676359646        0.33581374055166
C            1.80988069019266       -1.15673611952765        0.34080301115168
H            5.14681515568936       -3.63339102342228       -2.56940282795009
H            3.33592738908518       -2.25269859377533       -1.61994691541625
H            8.12644945572806       -1.13004313375945       -0.78394808537010
H            8.12649587372468        1.12991137641434        0.78377344861783
H            5.14696640774266        3.63331160100792        2.56932979327980
H            3.33602195378625        2.25264863384565        1.61993865108085
H            2.35598042675991        2.04386045867148       -0.62484287307672
H           -0.12341212144744        2.04191695997279       -0.60079489763735
H           -2.64748555055535        3.51728697788868       -0.70548701814674
H           -3.88295326868932        5.62484584446741       -1.12097755665880
H           -6.34774205389836        5.62186017862778       -1.11530670405476
H           -7.58000825317852        3.52803184053866       -0.69903731568954
H           -6.33351544175125        1.42603969378238       -0.28641597664416
H           -2.64753471104706       -3.51719877366812        0.70577313302818
H           -3.88303202084368       -5.62474090843593        1.12126007883390
H           -6.34782030888547       -5.62176741667031        1.11535334148549
H           -7.58005677264562       -3.52796679771522        0.69885644553790
H           -6.33353457943907       -1.42598989617460        0.28624636037241
H           -0.12343545537439       -2.04190519941920        0.60086186941299
H            2.35595745959267       -2.04389143200190        0.62485974594045
