59
 energy: -100.701110703052 gnorm: 0.000049453855 xtb: 6.7.1 (edcfbbe)
Br           6.08112219385580       -4.13356601405565       -1.32784686202705
C            4.72879921353433       -2.85238495786287       -0.92059292400129
C            3.39262551569530       -3.22651351771027       -1.06043475131087
C            2.38165393440049       -2.33345870508822       -0.77182064522729
C            2.73598213838284       -1.06231025706886       -0.33430325591238
C            4.09691233532273       -0.68254071769973       -0.21778542778498
C            5.10569994801004       -1.58856436091138       -0.50947793605226
C            4.09771676847482        0.68811091775982        0.20699217018292
C            5.10759758739769        1.59395240699576        0.49544969018730
C            4.73224254478031        2.85787111177638        0.90767691086457
Br           6.08610084847567        4.13881930781857        1.31054132845847
C            3.39658933795576        3.23226922349910        1.05171605135490
C            2.38453654738439        2.33940585001639        0.76631785896879
C            2.73723366333702        1.06816493199471        0.32774587154076
N            1.93326277543579        0.00300963039254       -0.00201200793423
C            0.52836916383573        0.00325163367966       -0.00029013116306
C           -0.17576373655838        1.00177341059443       -0.68098852831705
C           -1.54671382800115        1.00474491477880       -0.67879695307702
C           -2.26923865521360        0.00340351032582        0.00250459379029
C           -3.68703269193717        0.00333928209238        0.00356048179941
N           -4.37512937244926        0.96715245205198       -0.65943006350393
C           -5.67777498537148        0.96028671643510       -0.64466517342589
C           -6.41570960381413        1.99979366093551       -1.34403013617510
C           -5.73604637583705        3.00563721245960       -2.03400360938257
C           -6.44224619817842        3.98953588145462       -2.69456592819831
C           -7.82966676746651        3.98474323248794       -2.67665389336246
C           -8.51034342206138        2.98870688672703       -1.99317412292590
C           -7.81154114674842        2.00042607467777       -1.32962828447628
N           -6.37680941683301        0.00246385086113        0.00439419057203
C           -5.67683273278691       -0.95456718398830        0.65329187909439
C           -6.41382850199008       -1.99442650971106        1.35334056883790
C           -5.73326017918279       -2.99770500621758        2.04609830569455
C           -6.43856203685743       -3.98192738364669        2.70717121704115
C           -7.82594807235299       -3.98001964444487        2.68689119256353
C           -8.50751558514346       -2.98652226061570        2.00062511997161
C           -7.80960924932986       -1.99787643317365        1.33665980843740
N           -4.37416349055258       -0.96077298240179        0.66742313867301
C           -1.54547228798330       -0.99791775329646        0.68250708440717
C           -0.17450723266833       -0.99510306995346        0.68193666026617
H            3.15406667983991       -4.22193927231753       -1.40107377816340
H            1.34754997804300       -2.61412101271404       -0.89442693565579
H            6.14578189008852       -1.31683387245077       -0.42271002218311
H            6.14734802243768        1.32201394733475        0.40541541478893
H            3.15930500530845        4.22776994190661        1.39302692178349
H            1.35087614836753        2.62028477240062        0.89213789369192
H            0.37279083131502        1.75558834181625       -1.22692406213878
H           -2.09789085197641        1.76639361359732       -1.20762488577892
H           -4.65700360382722        2.99597678419008       -2.03912983712019
H           -5.91335430281072        4.76611300025336       -3.22735168467040
H           -8.37895351282422        4.75665007203479       -3.19492551012606
H           -9.59037188927894        2.98561507958319       -1.97964114077271
H           -8.32754200785896        1.21896825906612       -0.79323847111352
H           -4.65425421283305       -2.98578381502008        2.05307034804509
H           -5.90898494695982       -4.75646913595454        3.24222657839416
H           -8.37452716982518       -4.75218330672986        3.20553078843643
H           -9.58751934362746       -2.98569666001211        1.98522216650875
H           -8.32629958519276       -1.21837659042785        0.79809714936171
H           -2.09566930012461       -1.75954009562621        1.21239270155970
H            0.37505853953525       -1.74898816365691        1.22675797089191
