  55
        -91.22196177
 C          0.0039135288       -0.6629910329        0.8182701970
 C          0.0008083852       -1.8442957963       -0.1075100811
 C          1.2037280928       -2.4285986611       -0.5148466237
 C          2.5115879778       -1.8638882819       -0.1282261669
 C          3.4428188331       -2.6466109301        0.5466490480
 C          4.6722137758       -2.1210743539        0.8916647319
 C          5.0051065169       -0.8144259012        0.5626339727
 C          4.0904490707       -0.0258604018       -0.1286028338
 C          2.8528037104       -0.5599169248       -0.4635675505
 O          4.2892160034        1.2667690233       -0.5274051427
 C          5.4723424095        1.9192415361       -0.3169681080
 C          5.5363144209        3.2085719218       -0.8355788188
 C          6.6749271225        3.9776907349       -0.6851255878
 C          7.7704741254        3.4646546947       -0.0125496958
 C          7.7173828140        2.1833251591        0.5040108487
 C          6.5763989213        1.4070437840        0.3572304107
 S          6.6005394934       -0.2222038036        1.0583388035
 C          1.1940411132       -3.5803073622       -1.2952346374
 C          0.0002877343       -4.1539540888       -1.6884181907
 C         -1.1926450704       -3.5753545952       -1.3009019402
 C         -1.2027618468       -2.4239843664       -0.5191351452
 C         -2.5118710402       -1.8597445507       -0.1372989897
 C         -3.4547339186       -2.6537043887        0.5077334964
 C         -4.6880322569       -2.1329917227        0.8454701597
 C         -5.0130242883       -0.8185953748        0.5405634495
 C         -4.0853965275       -0.0169064708       -0.1173389151
 C         -2.8447899623       -0.5472225594       -0.4473650285
 O         -4.2742238028        1.2862402563       -0.4860081104
 C         -5.4623013064        1.9334171837       -0.2880657297
 C         -5.5168569105        3.2333092519       -0.7809032019
 C         -6.6595530039        3.9980911905       -0.6392890344
 C         -7.7690966860        3.4700722822       -0.0023810841
 C         -7.7254234656        2.1783466087        0.4884939548
 C         -6.5800426833        1.4068462757        0.3514948304
 S         -6.6158750768       -0.2351023793        1.0217986391
 H          0.0182103177        0.2725367874        0.2608807646
 H         -0.8870944364       -0.6666267283        1.4418404091
 H          0.8848758713       -0.6839179181        1.4559049332
 H          3.1963178217       -3.6622795757        0.8154187648
 H          5.3953991594       -2.7181860205        1.4258963608
 H          2.1673096829        0.0666647590       -1.0112006317
 H          4.6687110982        3.5843469326       -1.3547077589
 H          6.7025513843        4.9756999153       -1.0938591156
 H          8.6643794669        4.0553324568        0.1113473092
 H          8.5608679563        1.7642791489        1.0311327644
 H          2.1346929883       -4.0154103012       -1.5999930282
 H         -0.0001688286       -5.0459548621       -2.2968056626
 H         -2.1332939976       -4.0063932179       -1.6112949300
 H         -3.2151398641       -3.6758814836        0.7579038045
 H         -5.4209702890       -2.7403729853        1.3542347760
 H         -2.1501732378        0.0893827601       -0.9707664751
 H         -4.6379050207        3.6215712633       -1.2719011803
 H         -6.6793531405        5.0045807620       -1.0271321449
 H         -8.6666262059        4.0571347957        0.1137397296
 H         -8.5799443798        1.7472527386        0.9879080884
  55
        -91.22192720
 C          0.0299084187       -0.6906886836        0.8095570060
 C          0.0059332824       -1.8813412901       -0.1042102379
 C          1.1972172457       -2.4771858710       -0.5291258413
 C          2.5148511875       -1.9124802475       -0.1791568937
 C          3.4688980090       -2.6965737067        0.4615374333
 C          4.7053616999       -2.1682870866        0.7758741655
 C          5.0227550964       -0.8568970175        0.4503215357
 C          4.0832811850       -0.0652113625       -0.2029891968
 C          2.8399217330       -0.6027707082       -0.5090919041
 O          4.2620760875        1.2339405896       -0.5902526846
 C          5.4053174134        1.9273090013       -0.3039746216
 C          5.4054103850        3.2587058783       -0.7074228228
 C          6.5020019686        4.0686788377       -0.4791215516
 C          7.6173255705        3.5561363359        0.1606107034
 C          7.6259170481        2.2345575879        0.5666923294
 C          6.5286207773        1.4160299369        0.3384084217
 S          6.6354231284       -0.2666466949        0.8892638694
 C          1.1637642366       -3.6398255787       -1.2930982406
 C         -0.0411087626       -4.2133007194       -1.6508206535
 C         -1.2228277160       -3.6220298910       -1.2475738894
 C         -1.2092088989       -2.4586121632       -0.4844776644
 C         -2.5041993340       -1.8711756336       -0.0896462323
 C         -3.4441669468       -2.6341832272        0.5956610056
 C         -4.6608118505       -2.0848895080        0.9488779954
 C         -4.9717740391       -0.7728500358        0.6196280895
 C         -4.0487958503       -0.0041311015       -0.0827983266
 C         -2.8250601553       -0.5626058706       -0.4279441259
 O         -4.2268784163        1.2914930297       -0.4826310965
 C         -5.4151838877        1.9464935679       -0.3121241333
 C         -5.4770684884        3.2163403759       -0.8769511423
 C         -6.6212211854        3.9845858966       -0.7704136317
 C         -7.7252318717        3.4891140467       -0.0984454773
 C         -7.6738998680        2.2273807688        0.4644887377
 C         -6.5262988668        1.4533602538        0.3646223218
 S         -6.5473665916       -0.1449263117        1.1337648953
 H          0.9300008507       -0.6987635298        1.4197621645
 H          0.0181236278        0.2398520238        0.2442323981
 H         -0.8412650232       -0.6954706795        1.4606127357
 H          3.2353858603       -3.7158269765        0.7282212595
 H          5.4474041966       -2.7681443129        1.2803286546
 H          2.1363784624        0.0261241943       -1.0303505549
 H          4.5236307711        3.6331948368       -1.2030862201
 H          6.4810602902        5.0981993565       -0.8008269372
 H          8.4788055795        4.1785842637        0.3445588636
 H          8.4856926113        1.8153137303        1.0666837830
 H          2.0948763188       -4.0847020575       -1.6123781386
 H         -0.0591412104       -5.1157219729       -2.2432488819
 H         -2.1721897505       -4.0523937789       -1.5310460510
 H         -3.2144278290       -3.6532285289        0.8664362133
 H         -5.3901897024       -2.6666767747        1.4915468985
 H         -2.1331950139        0.0492875326       -0.9839987180
 H         -4.6034952707        3.5781565932       -1.3960035082
 H         -6.6469356086        4.9678570960       -1.2135339479
 H         -8.6240506828        4.0787591384       -0.0098271283
 H         -8.5229770968        1.8233077641        0.9943310443
  55
        -91.22181967
 C          0.0023646654       -0.6303599992        0.7275191956
 C          0.0006704264       -1.8735019374       -0.1135238802
 C          1.2032319763       -2.4855357239       -0.4790892665
 C          2.5124195264       -1.9026586557       -0.1259707613
 C          3.4396419058       -2.6484858152        0.5945963711
 C          4.6717902786       -2.1103483014        0.9087026014
 C          5.0126555230       -0.8284275742        0.5003772403
 C          4.0999593007       -0.0754606156       -0.2318890248
 C          2.8585467172       -0.6206275924       -0.5331738931
 O          4.3073114923        1.1905512347       -0.7059545913
 C          5.4154100140        1.9175225087       -0.3687280935
 C          5.4130396824        3.2380534350       -0.8057078412
 C          6.4748313436        4.0783728451       -0.5280599731
 C          7.5544994708        3.6094581512        0.1999527955
 C          7.5662258017        2.2981656172        0.6382300164
 C          6.5066602498        1.4478387283        0.3556032354
 S          6.6233578689       -0.2267584902        0.9312776028
 C          1.1924826133       -3.6865778815       -1.1816352530
 C         -0.0013493355       -4.2835394469       -1.5376979418
 C         -1.1940027690       -3.6803238083       -1.1881231058
 C         -1.2032055568       -2.4797095469       -0.4844706316
 C         -2.5120569442       -1.8948271357       -0.1333172216
 C         -3.4446208547       -2.6471223581        0.5743233117
 C         -4.6765216379       -2.1094500471        0.8899973688
 C         -5.0119725750       -0.8215199899        0.4965392997
 C         -4.0946793269       -0.0622359084       -0.2235576167
 C         -2.8533105460       -0.6069961982       -0.5268341258
 O         -4.2962981092        1.2104300366       -0.6819673608
 C         -5.4115970452        1.9309201291       -0.3542365033
 C         -5.4119860151        3.2524032969       -0.7893837885
 C         -6.4807766757        4.0866624251       -0.5204704306
 C         -7.5649009511        3.6107784803        0.1966172737
 C         -7.5739848647        2.2988173648        0.6327502028
 C         -6.5075066994        1.4541538181        0.3586622554
 S         -6.6210493709       -0.2199457168        0.9326985990
 H         -0.8834082569       -0.5966281005        1.3575346381
 H          0.8884767414       -0.5985485845        1.3570865111
 H          0.0031902575        0.2630810774        0.1051128097
 H          3.1882657209       -3.6455399054        0.9221416967
 H          5.3931558828       -2.6802330158        1.4744578350
 H          2.1754017942       -0.0225824450       -1.1143671872
 H          4.5590576670        3.5790849572       -1.3700039892
 H          6.4551355322        5.0980268924       -0.8814593473
 H          8.3875449455        4.2574146954        0.4250216998
 H          8.4005431312        1.9116861128        1.2031043033
 H          2.1328431921       -4.1430640507       -1.4541775676
 H         -0.0022673150       -5.2142306536       -2.0848847056
 H         -2.1350545888       -4.1312672574       -1.4673749149
 H         -3.1970565704       -3.6484125815        0.8913266037
 H         -5.4016808588       -2.6844526634        1.4451883152
 H         -2.1671418174       -0.0037981127       -1.0988778412
 H         -4.5546641299        3.5984136446       -1.3448498796
 H         -6.4618020616        5.1073291008       -0.8697280619
 H         -8.4022361096        4.2539762220        0.4168625051
 H         -8.4115667685        1.9068695195        1.1896877728
  55
        -91.22181878
 C          0.0250958482       -0.3503084852        1.1891502020
 C          0.0057621631       -1.0335118812       -0.1472956940
 C          1.2010671363       -1.3374068644       -0.8050522856
 C          2.5161172833       -1.0895391754       -0.1819036047
 C          2.8682727474       -1.6739194028        1.0303155527
 C          4.1214305917       -1.4566640488        1.5672338015
 C          5.0459764343       -0.6522219030        0.9155299776
 C          4.7075216238       -0.0603455397       -0.2973590638
 C          3.4474801470       -0.2918580621       -0.8346270859
 O          5.5160043084        0.7513806400       -1.0432111426
 C          6.7459850117        1.1546778179       -0.6021931155
 C          7.3980633646        2.0693654414       -1.4228046118
 C          8.6508854313        2.5509620728       -1.0922387673
 C          9.2691519427        2.1258953026        0.0708856907
 C          8.6275907639        1.2194757892        0.8945083857
 C          7.3715703906        0.7294579533        0.5655082999
 S          6.6333124576       -0.4409372248        1.6753174274
 C          1.1767335692       -1.8840958019       -2.0842589499
 C         -0.0241281548       -2.1445572100       -2.7155375968
 C         -1.2099175350       -1.8583770817       -2.0672390707
 C         -1.2054560331       -1.3106282187       -0.7879622197
 C         -2.5062500133       -1.0322732549       -0.1487628912
 C         -2.8468630381       -1.5848971501        1.0816547997
 C         -4.0861160619       -1.3343751313        1.6359244643
 C         -5.0086808163       -0.5277276452        0.9842061867
 C         -4.6849095090        0.0264956140       -0.2503074480
 C         -3.4386453266       -0.2377709959       -0.8044073644
 O         -5.4943569576        0.8312010991       -1.0024816021
 C         -6.7575679704        1.1704408393       -0.6038730393
 C         -7.4590539435        1.9811151581       -1.4904991354
 C         -8.7463360650        2.3961401587       -1.2052038411
 C         -9.3524257928        2.0039003667       -0.0242995714
 C         -8.6636071599        1.1976398143        0.8627438367
 C         -7.3708893997        0.7781546694        0.5817627461
 S         -6.5676836022       -0.2527959022        1.7811913883
 H          0.9193117656        0.2603837470        1.2898031531
 H         -0.8526265597        0.2809437383        1.3058977954
 H          0.0246547493       -1.0758259305        2.0013887751
 H          2.1697078281       -2.3156309695        1.5429767632
 H          4.4051886024       -1.9132821320        2.5031662237
 H          3.2049367692        0.1781970670       -1.7751607082
 H          6.8941128055        2.3848247756       -2.3224825400
 H          9.1401543630        3.2572628600       -1.7444413913
 H         10.2469188873        2.4943112054        0.3390133605
 H          9.0931592735        0.8737157695        1.8051376759
 H          2.1116213990       -2.1120140198       -2.5748239973
 H         -0.0357988475       -2.5701400132       -3.7076941206
 H         -2.1560058057       -2.0670211628       -2.5447155685
 H         -2.1504672640       -2.2274514498        1.5962258655
 H         -4.3591079847       -1.7631702862        2.5881198190
 H         -3.2066051932        0.2067134076       -1.7598574402
 H         -6.9638167434        2.2725923518       -2.4032558080
 H         -9.2719596923        3.0248186054       -1.9067357897
 H        -10.3564466262        2.3214198588        0.2093345535
 H         -9.1179154428        0.8803910616        1.7889133254
  55
        -91.22168056
 C         -0.0048461968       -0.7772230039        0.8063410235
 C         -0.0026031550       -1.9967770725       -0.0692278940
 C          1.2015420737       -2.5960288959       -0.4507596410
 C          2.5034736313       -1.9851555247       -0.1212121689
 C          3.4791166235       -2.7074015698        0.5578599175
 C          4.6967455039       -2.1248311400        0.8507509735
 C          4.9735920793       -0.8206068526        0.4647538117
 C          4.0119141495       -0.0913634495       -0.2278851861
 C          2.7883524996       -0.6825023651       -0.5115336070
 O          4.1510672006        1.1932853544       -0.6755547530
 C          5.2327910472        1.9614916858       -0.3451850764
 C          5.1583061889        3.2918843834       -0.7447601043
 C          6.1894379497        4.1717557506       -0.4740125021
 C          7.3104726275        3.7321601652        0.2084904533
 C          7.3926326934        2.4120546555        0.6113499193
 C          6.3634043562        1.5225275487        0.3366977286
 S          6.5664083056       -0.1572399867        0.8706834232
 C          1.1922598839       -3.7925242652       -1.1609257535
 C         -0.0013225952       -4.3942184403       -1.5107282315
 C         -1.1957507417       -3.7935219862       -1.1616459982
 C         -1.2058804663       -2.5969064738       -0.4520588016
 C         -2.5078403419       -1.9855100964       -0.1228744787
 C         -3.4797501696       -2.7025953300        0.5668567494
 C         -4.6965916714       -2.1183645032        0.8599945092
 C         -4.9762654146       -0.8180871244        0.4630533712
 C         -4.0186178111       -0.0945536407       -0.2410850848
 C         -2.7955325400       -0.6868647349       -0.5241024695
 O         -4.1619956769        1.1853397967       -0.7009589784
 C         -5.2339168846        1.9610099193       -0.3560930181
 C         -5.1549408071        3.2915224114       -0.7543405736
 C         -6.1764499463        4.1780216764       -0.4692971766
 C         -7.2913995371        3.7453291502        0.2275302746
 C         -7.3776936418        2.4251777277        0.6295110259
 C         -6.3588426026        1.5287667967        0.3392737412
 S         -6.5679335074       -0.1517658537        0.8688989626
 H         -0.8884573498       -0.7695513030        1.4403123122
 H          0.8828954532       -0.7612036151        1.4342990258
 H         -0.0116470132        0.1365782862        0.2148284806
 H          3.2778120870       -3.7202442347        0.8712035865
 H          5.4556329606       -2.6764519451        1.3843630125
 H          2.0679314860       -0.1025024960       -1.0653232589
 H          4.2729340538        3.6086849810       -1.2732507335
 H          6.1125983541        5.1988394012       -0.7951284794
 H          8.1198583747        4.4104508748        0.4282373889
 H          8.2589765528        2.0493523562        1.1430864933
 H          2.1327467852       -4.2410623775       -1.4457277626
 H         -0.0007082825       -5.3243085927       -2.0589988945
 H         -2.1358094535       -4.2429631078       -1.4463713430
 H         -3.2764594933       -3.7128189346        0.8873297216
 H         -5.4528384598       -2.6659100053        1.4015317009
 H         -2.0773420125       -0.1109878765       -1.0851204348
 H         -4.2741408274        3.6030078088       -1.2935102606
 H         -6.0968101885        5.2048772390       -0.7904394666
 H         -8.0930932720        4.4289408461        0.4586239143
 H         -8.2403244158        2.0673131871        1.1704146064
  55
        -91.22159752
 C         -0.0204696238       -0.5223348734        1.1556232083
 C         -0.0081692042       -1.2620325404       -0.1505238447
 C          1.1998757161       -1.5727911971       -0.7807101922
 C          2.5007529427       -1.2463678220       -0.1638938464
 C          2.8678457990       -1.7493096937        1.0799208634
 C          4.1017803067       -1.4399197209        1.6166996425
 C          4.9918124432       -0.6242852386        0.9318407064
 C          4.6394587715       -0.1170509582       -0.3150795870
 C          3.3987673311       -0.4387297303       -0.8502863833
 O          5.4184335705        0.6909247040       -1.0960395087
 C          6.5746462924        1.2504624060       -0.6262192475
 C          7.1505985139        2.2073959955       -1.4553722104
 C          8.3250383789        2.8414972736       -1.0956946229
 C          8.9365590220        2.5320397979        0.1069005280
 C          8.3698502626        1.5844076883        0.9390487280
 C          7.1958968472        0.9379298002        0.5788824296
 S          6.5574471423       -0.2872293451        1.6915924547
 C          1.1998035310       -2.1843601394       -2.0304512901
 C          0.0111185966       -2.5008350531       -2.6592805705
 C         -1.1875231198       -2.2000049085       -2.0412818925
 C         -1.2062238935       -1.5885762934       -0.7920208368
 C         -2.5152467315       -1.2773389220       -0.1841191786
 C         -2.8888720698       -1.7959699565        1.0512124746
 C         -4.1268207514       -1.4960610386        1.5839483738
 C         -5.0137519601       -0.6738066151        0.9031447448
 C         -4.6548468760       -0.1507623124       -0.3352733776
 C         -3.4105651129       -0.4640942832       -0.8672020675
 O         -5.4317231253        0.6668977160       -1.1087181117
 C         -6.5654248256        1.2538589923       -0.6172792616
 C         -7.1133087511        2.2521367705       -1.4159793785
 C         -8.2635261087        2.9150640134       -1.0308909531
 C         -8.8770492421        2.5947076495        0.1676884328
 C         -8.3375269914        1.6066238448        0.9702556744
 C         -7.1895252459        0.9300476617        0.5832968134
 S         -6.5869271380       -0.3501352837        1.6533997646
 H         -0.9073644375        0.1024166894        1.2305050773
 H         -0.0289703767       -1.2144645536        1.9965167644
 H          0.8644356003        0.1027425531        1.2477551188
 H          2.1956246512       -2.3971873223        1.6196732659
 H          4.3966893993       -1.8309645520        2.5785208907
 H          3.1441630855       -0.0333748058       -1.8172765719
 H          6.6524034133        2.4316696554       -2.3853877239
 H          8.7574328215        3.5776629053       -1.7551937508
 H          9.8512129457        3.0231744048        0.3995020869
 H          8.8326491633        1.3262684844        1.8793076317
 H          2.1443046970       -2.4173462741       -2.4998506044
 H          0.0186782760       -2.9776366935       -3.6279151580
 H         -2.1246430005       -2.4432509568       -2.5201721506
 H         -2.2181934555       -2.4486623109        1.5871399013
 H         -4.4274681479       -1.9007238736        2.5382506883
 H         -3.1493248554       -0.0439561512       -1.8259889576
 H         -6.6146936536        2.4839454171       -2.3439173132
 H         -8.6759159882        3.6817978910       -1.6679575777
 H         -9.7724355618        3.1086405124        0.4800652836
 H         -8.8021363410        1.3400891829        1.9072363553
  55
        -91.22123340
 C          0.0020676098       -0.6924594566        1.1633849292
 C          0.0006687993       -1.4394775558       -0.1383336162
 C          1.2023282020       -1.7663896844       -0.7721312613
 C          2.5056057837       -1.4104522798       -0.1755487844
 C          2.9120888063       -1.9095516973        1.0571805408
 C          4.1394955436       -1.5518537037        1.5793375761
 C          4.9810737674       -0.6893312090        0.8907133165
 C          4.5882801455       -0.1852999694       -0.3452761146
 C          3.3564446089       -0.5579144921       -0.8672903317
 O          5.3190158051        0.6694393590       -1.1236279889
 C          6.4051988101        1.3358229884       -0.6258118762
 C          6.8773998691        2.3800108722       -1.4140059135
 C          7.9742810248        3.1233167922       -1.0200834972
 C          8.6080605424        2.8383630937        0.1771026455
 C          8.1433293862        1.8047111211        0.9691714951
 C          7.0501113553        1.0476223666        0.5729596009
 S          6.5437377394       -0.2879236923        1.6255296162
 C          1.1912056444       -2.4024333875       -2.0090290173
 C         -0.0037958384       -2.7257251571       -2.6228737711
 C         -1.1965717770       -2.3980404574       -2.0070503324
 C         -1.2030879958       -1.7618991112       -0.7703337840
 C         -2.5041338900       -1.4014778223       -0.1712888029
 C         -2.9133797352       -1.9053348813        1.0583967907
 C         -4.1396053870       -1.5451205327        1.5815947328
 C         -4.9768718888       -0.6749297495        0.8975190817
 C         -4.5805487679       -0.1648067006       -0.3348580055
 C         -3.3503360692       -0.5407014759       -0.8583918231
 O         -5.3049348038        0.6992934521       -1.1085658580
 C         -6.4009955204        1.3534005908       -0.6163752192
 C         -6.8779001362        2.3943714280       -1.4060347101
 C         -7.9852675268        3.1258928006       -1.0191308277
 C         -8.6256107401        2.8316829299        0.1722543419
 C         -8.1560612548        1.8014677936        0.9659954024
 C         -7.0515430731        1.0569080837        0.5772984364
 S         -6.5383123817       -0.2724021563        1.6343887280
 H         -0.8807303582       -0.0625194704        1.2429159555
 H         -0.0040259532       -1.3834556482        2.0056565880
 H          0.8913525265       -0.0723591208        1.2472330698
 H          2.2739319034       -2.5876384135        1.6013304458
 H          4.4656531005       -1.9391138587        2.5324439892
 H          3.0684813356       -0.1541894576       -1.8256521036
 H          6.3630038444        2.5836225680       -2.3399640176
 H          8.3284549022        3.9255650876       -1.6484214833
 H          9.4619552861        3.4150007906        0.4961602876
 H          8.6259995667        1.5640646770        1.9040658333
 H          2.1314081118       -2.6464197853       -2.4815532674
 H         -0.0055203876       -3.2241126765       -3.5806258854
 H         -2.1385368341       -2.6380866011       -2.4781494841
 H         -2.2791831366       -2.5905581473        1.5985353942
 H         -4.4689233616       -1.9375910214        2.5315514984
 H         -3.0585471748       -0.1303652969       -1.8127206040
 H         -6.3588704485        2.6045909171       -2.3277903943
 H         -8.3438364961        3.9246338396       -1.6494701226
 H         -9.4892513458        3.3974902066        0.4848097302
 H         -8.6444385486        1.5529625534        1.8959349839
  55
        -91.22084957
 C         -0.0967793790       -0.6148691797        0.9457055805
 C         -0.0381478087       -1.6556241711       -0.1330386028
 C          1.2051729184       -2.0966843709       -0.5914667565
 C          2.4558013422       -1.5323942828       -0.0329076947
 C          2.9926603812       -2.0218340354        1.1519537210
 C          4.1643227277       -1.4884660091        1.6519876011
 C          4.8197727466       -0.4629278415        0.9852163352
 C          4.2971715663        0.0285523582       -0.2066787728
 C          3.1181542666       -0.5152384761       -0.7032914357
 O          4.8402653964        1.0257972984       -0.9669467992
 C          6.0330217696        1.6149564509       -0.6498440906
 C          6.4875795285        2.5587959610       -1.5648662120
 C          7.6785121043        3.2295948306       -1.3587657055
 C          8.4351654910        2.9622290244       -0.2310869829
 C          7.9922841828        2.0245534001        0.6833005897
 C          6.7965104813        1.3498367198        0.4827173795
 S          6.3058943573        0.1719407951        1.7144604420
 C          1.2908254422       -3.0694875993       -1.5778647293
 C          0.1419311070       -3.6293590610       -2.1064738537
 C         -1.0922718702       -3.2031118816       -1.6573251106
 C         -1.1946442102       -2.2098410373       -0.6865227922
 C         -2.5466800708       -1.7792539776       -0.2812423902
 C         -3.4692221033       -2.7105578118        0.1845112422
 C         -4.7433263703       -2.3109127611        0.5353865983
 C         -5.1283746444       -0.9824597258        0.4205988341
 C         -4.2213608735       -0.0426092242       -0.0591556430
 C         -2.9392667922       -0.4520188113       -0.4029406977
 O         -4.4711615442        1.2907818433       -0.2327195141
 C         -5.7255901341        1.8162619897       -0.0893665503
 C         -5.8562935096        3.1497654333       -0.4628371978
 C         -7.0720575730        3.7991644290       -0.3577529212
 C         -8.1800156886        3.1186337571        0.1167135319
 C         -8.0609856425        1.7918472110        0.4866113991
 C         -6.8412175960        1.1373838692        0.3907138511
 S         -6.7763328795       -0.5560189089        0.9143592587
 H          0.6440671900       -0.8254750441        1.7136775153
 H          0.1318253500        0.3679031488        0.5342782625
 H         -1.0807950895       -0.5783493192        1.4034321689
 H          2.4953595969       -2.8223808011        1.6783946097
 H          4.5889773980       -1.8594104390        2.5723339299
 H          2.7282957304       -0.1212368117       -1.6290673778
 H          5.8797957311        2.7474835444       -2.4356850641
 H          8.0119114193        3.9585911313       -2.0806250534
 H          9.3660246184        3.4790605121       -0.0594456164
 H          8.5668981308        1.8019656663        1.5694188327
 H          2.2642419148       -3.3886343887       -1.9206154511
 H          0.2095161285       -4.3921962157       -2.8674755825
 H         -1.9967894525       -3.6235407190       -2.0721698443
 H         -3.1824085858       -3.7459943238        0.2851725500
 H         -5.4611038768       -3.0254511390        0.9081207589
 H         -2.2576964833        0.2920453473       -0.7832132179
 H         -4.9783583407        3.6570705189       -0.8306161552
 H         -7.1501946757        4.8350239323       -0.6485332153
 H         -9.1340622376        3.6146322965        0.2014296347
 H         -8.9116278515        1.2440377154        0.8622530026
