  55
        -91.22196177
 C          0.0039135288       -0.6629910329        0.8182701970
 C          0.0008083852       -1.8442957963       -0.1075100811
 C          1.2037280928       -2.4285986611       -0.5148466237
 C          2.5115879778       -1.8638882819       -0.1282261669
 C          3.4428188331       -2.6466109301        0.5466490480
 C          4.6722137758       -2.1210743539        0.8916647319
 C          5.0051065169       -0.8144259012        0.5626339727
 C          4.0904490707       -0.0258604018       -0.1286028338
 C          2.8528037104       -0.5599169248       -0.4635675505
 O          4.2892160034        1.2667690233       -0.5274051427
 C          5.4723424095        1.9192415361       -0.3169681080
 C          5.5363144209        3.2085719218       -0.8355788188
 C          6.6749271225        3.9776907349       -0.6851255878
 C          7.7704741254        3.4646546947       -0.0125496958
 C          7.7173828140        2.1833251591        0.5040108487
 C          6.5763989213        1.4070437840        0.3572304107
 S          6.6005394934       -0.2222038036        1.0583388035
 C          1.1940411132       -3.5803073622       -1.2952346374
 C          0.0002877343       -4.1539540888       -1.6884181907
 C         -1.1926450704       -3.5753545952       -1.3009019402
 C         -1.2027618468       -2.4239843664       -0.5191351452
 C         -2.5118710402       -1.8597445507       -0.1372989897
 C         -3.4547339186       -2.6537043887        0.5077334964
 C         -4.6880322569       -2.1329917227        0.8454701597
 C         -5.0130242883       -0.8185953748        0.5405634495
 C         -4.0853965275       -0.0169064708       -0.1173389151
 C         -2.8447899623       -0.5472225594       -0.4473650285
 O         -4.2742238028        1.2862402563       -0.4860081104
 C         -5.4623013064        1.9334171837       -0.2880657297
 C         -5.5168569105        3.2333092519       -0.7809032019
 C         -6.6595530039        3.9980911905       -0.6392890344
 C         -7.7690966860        3.4700722822       -0.0023810841
 C         -7.7254234656        2.1783466087        0.4884939548
 C         -6.5800426833        1.4068462757        0.3514948304
 S         -6.6158750768       -0.2351023793        1.0217986391
 H          0.0182103177        0.2725367874        0.2608807646
 H         -0.8870944364       -0.6666267283        1.4418404091
 H          0.8848758713       -0.6839179181        1.4559049332
 H          3.1963178217       -3.6622795757        0.8154187648
 H          5.3953991594       -2.7181860205        1.4258963608
 H          2.1673096829        0.0666647590       -1.0112006317
 H          4.6687110982        3.5843469326       -1.3547077589
 H          6.7025513843        4.9756999153       -1.0938591156
 H          8.6643794669        4.0553324568        0.1113473092
 H          8.5608679563        1.7642791489        1.0311327644
 H          2.1346929883       -4.0154103012       -1.5999930282
 H         -0.0001688286       -5.0459548621       -2.2968056626
 H         -2.1332939976       -4.0063932179       -1.6112949300
 H         -3.2151398641       -3.6758814836        0.7579038045
 H         -5.4209702890       -2.7403729853        1.3542347760
 H         -2.1501732378        0.0893827601       -0.9707664751
 H         -4.6379050207        3.6215712633       -1.2719011803
 H         -6.6793531405        5.0045807620       -1.0271321449
 H         -8.6666262059        4.0571347957        0.1137397296
 H         -8.5799443798        1.7472527386        0.9879080884
