102
 energy: -157.212255107703 gnorm: 0.000051181277 xtb: 6.7.1 (edcfbbe)
C           -7.01573158032901       -3.06719481555457       -2.65833493559971
C           -6.61698939145314       -2.22397298263747       -1.63382464711848
C           -5.30251557582337       -1.80430388646015       -1.54956411922057
C           -4.35891433050789       -2.22541634598322       -2.48639820424444
C           -2.96087548819583       -1.78080617790719       -2.39073167405760
C           -1.91579642542300       -2.68668851819579       -2.63710333854273
C           -0.58953824308798       -2.31855586158804       -2.53344017577125
C           -0.30950127450120       -1.01007071065414       -2.17122190732646
N            0.89288553538615       -0.38916781786522       -1.96402130979317
C            0.68425077029785        0.89677180634524       -1.55701742508819
C            1.63483718899437        1.89067650322424       -1.19259460104586
C            2.97814494909821        1.60746419469071       -0.78915523095923
C            4.01546221399301        2.51278477911546       -1.11041613506091
C            5.33456887709616        2.23654474559000       -0.88947901358518
C            5.68030550682038        1.01696699872806       -0.25739229055580
C            4.65852181337613        0.12291590066304        0.13561625941942
N            5.24055051186086       -0.92679656406206        0.81065397348651
C            6.59447730050727       -0.74251795377678        0.86652674823749
C            7.57426861918723       -1.53130163158861        1.44408267962811
C            8.88668394162943       -1.10085938300431        1.34704187752284
C            9.21232682483243        0.09034072501158        0.68936429875699
C            8.24490768135459        0.88399242721902        0.11485339526665
C            6.90950837303657        0.47384671750681        0.19228452893097
C            3.30283371173920        0.38318787151347       -0.06138052254689
C            2.27328526848772       -0.46718601885852        0.48879974603735
C            2.34232317591290       -1.86818632956245        0.36932384583323
C            1.28192916210429       -2.71240787446884        0.68079349315070
C            1.41084136227453       -4.15851131618553        0.45385987471132
C            2.59206695119889       -4.83221055918138        0.76199996525071
C            2.70864181202307       -6.19215802154780        0.54296978091722
C            1.64907260468396       -6.90462990344986        0.00559754227288
C            0.47003313612841       -6.24674566592825       -0.30607945756398
C            0.34985498996243       -4.88816283448873       -0.08179793507314
C            0.07606458763350       -2.18079298689550        1.15416750530036
C           -0.01186550511387       -0.81152081663838        1.35479986991799
C            1.08293162492354        0.03334669031481        1.06379003187439
N            0.77610739047748        1.30507804161015        1.46088010801993
C           -0.52044258734691        1.34660054013367        1.90190365371834
C           -1.28151573298156        2.42211025769026        2.33215366268575
C           -2.59454841473020        2.18075589407366        2.68324064419917
C           -3.15240211028752        0.89360121405995        2.63535227760870
C           -4.56462719173341        0.68813680934400        2.99266050077737
C           -4.95189977742833       -0.40390400243815        3.76747370128860
C           -6.28087676564458       -0.60257742464803        4.09284775416721
C           -7.24835659145566        0.28242508120118        3.64548808917697
C           -6.87637137809094        1.36990804735480        2.87213097587172
C           -5.54693649048507        1.57300106751814        2.55096265293551
C           -2.37134558898299       -0.18477057741007        2.23549274843402
C           -1.05666039013942        0.03764516803664        1.85823594095254
C            1.11028804374689        3.20589116884961       -1.11805904511507
C           -0.24321883251766        3.48651869713397       -1.18526383489509
C           -0.71243628773338        4.86481772316860       -0.99391112959330
C           -0.03074347974627        5.93896796757188       -1.56563522342251
C           -0.47473475778647        7.23487881031147       -1.38093524751050
C           -1.60317504937677        7.48325750974056       -0.61600744757207
C           -2.28804849314615        6.42454443336143       -0.04115620459434
C           -1.85064069018859        5.12738374701953       -0.23151876647807
C           -1.17828190300661        2.45194466021432       -1.38640794527462
C           -0.70047357659533        1.16772108868948       -1.60130814143460
C           -1.34571279842755       -0.07068783366114       -1.94388006567453
C           -2.66933595135398       -0.46347350241219       -2.05038213196025
C           -4.77226333514280       -3.07548973633907       -3.51143216292993
C           -6.08875887719106       -3.48885773870547       -3.59781534390166
H           -8.04366195041582       -3.39283201190374       -2.72531708452334
H           -7.33284343619585       -1.89345466872934       -0.89449211662183
H           -4.99776086097241       -1.15900881302515       -0.73823200003404
H           -2.16089813753862       -3.70814025889817       -2.88781444179657
H            0.20311284704759       -3.03093409200881       -2.70767304657472
H            1.79163586652705       -0.83933611235334       -2.01635127190368
H            3.74983055842344        3.42166487293677       -1.62990185530559
H            6.10789948057179        2.92447587526856       -1.19378159142755
H            4.73396436242769       -1.65481247509559        1.28555214848411
H            7.32368368901778       -2.44961392536348        1.95489790956850
H            9.67522292352001       -1.69370303806740        1.78635900621286
H           10.24954400188288        0.38914225087642        0.63615862423732
H            8.50592059931717        1.80242149065976       -0.38930432949847
H            3.21231048599978       -2.29891976827089       -0.10653437547955
H            3.41823666758488       -4.28969117816663        1.19883241057257
H            3.62918708422802       -6.69965506956468        0.79427467232345
H            1.74127348158802       -7.96690906479150       -0.16756542577473
H           -0.35916801947457       -6.79606298093278       -0.72869132557314
H           -0.56501176621068       -4.37736422872303       -0.34385430830452
H           -0.75615389657789       -2.82537188005802        1.38596144924563
H            1.36590862501162        2.10917674623444        1.32729015577728
H           -0.86516981388327        3.41761037748662        2.37517662413204
H           -3.20995015189668        3.00164671973329        3.02127518078762
H           -4.20027698982365       -1.08947125756326        4.13195451720726
H           -6.56404861906421       -1.45071517308613        4.70012222303590
H           -8.28692377244889        0.12531033304920        3.89834426296287
H           -7.62692545866830        2.06148272851198        2.51607855224531
H           -5.26646570180349        2.41451875595590        1.93363760649982
H           -2.79441829615209       -1.17668086965892        2.18193218535295
H            1.78857835262811        4.00875634753336       -0.87048715315493
H            0.84020416626123        5.75084207388523       -2.17691062710010
H            0.06006782601803        8.05584476745466       -1.83711281015862
H           -1.94755418656002        8.49667329595455       -0.46976301941556
H           -3.16685136384437        6.61274626207858        0.55920001505888
H           -2.37745697048691        4.30646991105263        0.23249579549535
H           -2.23328026558537        2.66513371377799       -1.43447588206257
H           -3.46507911386460        0.24591383556896       -1.88081194935498
H           -4.05959834352334       -3.39388038119900       -4.25867198811925
H           -6.39473430939238       -4.14142924184421       -4.40326016658743
