  102
       -157.25110465
 C         -7.1812697014       -2.8327247243       -1.4685712754
 C         -6.6133956661       -1.9144422611       -0.6012484243
 C         -5.2959127331       -1.5291751233       -0.7627412490
 C         -4.5210135216       -2.0596803854       -1.7925078062
 C         -3.1152641176       -1.6536500277       -1.9410160396
 C         -2.1335320625       -2.6120554561       -2.2299856968
 C         -0.7939470749       -2.2886601732       -2.3040830897
 C         -0.4356041579       -0.9696267868       -2.0757369711
 N          0.8072779478       -0.3974050129       -2.0070515994
 C          0.6766385318        0.9186157066       -1.6500014402
 C          1.6496020469        1.8513162413       -1.2854580945
 C          3.0454363308        1.4909288802       -0.9704328093
 C          4.0838594186        2.2664168087       -1.5011009703
 C          5.4082147371        2.0302753620       -1.2000529032
 C          5.7135229075        0.9951100846       -0.3251989923
 C          4.6691485073        0.2105699072        0.2141277575
 N          5.2079631329       -0.7310494073        1.0534161533
 C          6.5710764812       -0.5863268935        1.0811575440
 C          7.5233470011       -1.3091754217        1.7826725329
 C          8.8482466272       -0.9525413191        1.6194613067
 C          9.2195485683        0.0961099266        0.7798150211
 C          8.2749320914        0.8190298562        0.0789322386
 C          6.9358175827        0.4801634682        0.2254817643
 C          3.3276143671        0.4362937263       -0.0888972561
 C          2.2864452319       -0.4617354400        0.4462426457
 C          2.3999519127       -1.8338635911        0.2497616636
 C          1.3688088327       -2.7337472495        0.5470759292
 C          1.5617732312       -4.1699092637        0.3011413716
 C          2.7891194986       -4.7802422956        0.5529613347
 C          2.9707584443       -6.1298090776        0.3153454837
 C          1.9299422361       -6.8958766924       -0.1815549396
 C          0.7046076795       -6.3018590227       -0.4342732943
 C          0.5203775159       -4.9534897352       -0.1937004471
 C          0.1538967937       -2.2504601336        1.0170285902
 C          0.0158455567       -0.8916773741        1.2462427072
 C          1.0994319495       -0.0090360548        1.0245556626
 N          0.7267806040        1.2556328616        1.3953396977
 C         -0.6026474152        1.2506309298        1.7269500599
 C         -1.4352714534        2.3053350492        2.0665181436
 C         -2.7709568586        2.0279777073        2.2718487877
 C         -3.2850351819        0.7269963671        2.1698091100
 C         -4.7269619274        0.4903325212        2.3384245442
 C         -5.1919728061       -0.6191682220        3.0411377850
 C         -6.5478576059       -0.8483309479        3.1803800486
 C         -7.4640777111        0.0235244325        2.6155563496
 C         -7.0143497268        1.1275668840        1.9106678447
 C         -5.6586173200        1.3601307241        1.7749001449
 C         -2.4338967307       -0.3323278128        1.8821384288
 C         -1.0917608666       -0.0733708749        1.6560862692
 C          1.2116467558        3.1522469553       -1.0669507419
 C         -0.1386338467        3.5204888811       -1.1241498666
 C         -0.5254912261        4.9175619507       -0.8814325270
 C          0.2516767121        5.9656419600       -1.3711741199
 C         -0.1102362202        7.2802656293       -1.1441522836
 C         -1.2538540966        7.5734256802       -0.4204328302
 C         -2.0356201899        6.5407469763        0.0701264272
 C         -1.6775259603        5.2257742480       -0.1597740457
 C         -1.1036681260        2.5483832190       -1.3568320237
 C         -0.6983975782        1.2492099938       -1.6138758916
 C         -1.4131541729        0.0223115263       -1.8342904909
 C         -2.7519920744       -0.3249697192       -1.7621925706
 C         -5.1023305558       -2.9833086012       -2.6579413544
 C         -6.4219245896       -3.3635844156       -2.4982541434
 H         -8.2109531501       -3.1337942181       -1.3434800997
 H         -7.1941904411       -1.4972014012        0.2083799695
 H         -4.8567097214       -0.8254865495       -0.0724840525
 H         -2.4361633591       -3.6404374946       -2.3637412763
 H         -0.0459663438       -3.0422289260       -2.5019628777
 H          1.6753506713       -0.9025613846       -2.0396978052
 H          3.8249180488        3.0613155527       -2.1851013699
 H          6.1901437278        2.6363423456       -1.6310775089
 H          4.6726681240       -1.3867523524        1.5952931148
 H          7.2378734491       -2.1217963250        2.4344975506
 H          9.6128890315       -1.4970074107        2.1531965907
 H         10.2657776999        0.3432628881        0.6790780295
 H          8.5668677295        1.6304157677       -0.5705904330
 H          3.2931126618       -2.2135945776       -0.2276807642
 H          3.6044797638       -4.1970783215        0.9570007207
 H          3.9279961238       -6.5867088516        0.5209610797
 H          2.0727436782       -7.9494737341       -0.3697567732
 H         -0.1116371775       -6.8928776142       -0.8240195177
 H         -0.4328293037       -4.4949575497       -0.4088787254
 H         -0.6693842952       -2.9198738637        1.2085378581
 H          1.2751771694        2.0844550518        1.2429213786
 H         -1.0533982306        3.3124771115        2.1433875899
 H         -3.4438303493        2.8326831185        2.5302724055
 H         -4.4824976426       -1.2952835633        3.4955071440
 H         -6.8926841630       -1.7106161259        3.7324986330
 H         -8.5236415144       -0.1573287112        2.7227034804
 H         -7.7236186749        1.8073016405        1.4607173663
 H         -5.3151521323        2.2127891125        1.2071192697
 H         -2.8198213363       -1.3356697077        1.7855797902
 H          1.9396333131        3.8954357976       -0.7731928672
 H          1.1351518215        5.7464430031       -1.9531406935
 H          0.5006604537        8.0806089146       -1.5364732758
 H         -1.5351419694        8.6005187850       -0.2412279480
 H         -2.9285254679        6.7624411657        0.6370073288
 H         -2.2848617417        4.4267054633        0.2376606711
 H         -2.1523303317        2.7993958148       -1.3544021532
 H         -3.5023488962        0.4240463217       -1.5614214110
 H         -4.5206214089       -3.3894741292       -3.4730581749
 H         -6.8614531262       -4.0764182045       -3.1810893695
