102
 energy: -157.212253489488 gnorm: 0.000075345553 xtb: 6.7.1 (edcfbbe)
C           -6.90532737423689       -3.29120770289163       -2.64404688154715
C           -6.53182811034288       -2.42944135385350       -1.62549835669864
C           -5.23179333324228       -1.96584830311767       -1.54749281982346
C           -4.27718264319248       -2.36091795775425       -2.48453285702498
C           -2.89277247092573       -1.87467127872186       -2.39234630668776
C           -1.82268786799721       -2.75059410180866       -2.63957938438057
C           -0.50726810759963       -2.34547030248248       -2.53566918042281
C           -0.26414564127831       -1.03021711090516       -2.17177487849569
N            0.92066214301817       -0.37695539610451       -1.96183584090540
C            0.67620260596465        0.90198893165397       -1.55319521447891
C            1.59912449889325        1.92067008779010       -1.18631129553828
C            2.94758820568558        1.67040101846703       -0.77780156390433
C            3.96506783039791        2.59818624471828       -1.09690020664579
C            5.28953148827171        2.34909108234636       -0.87495411219970
C            5.66011544313950        1.13565688187667       -0.24512562090427
C            4.65754608211968        0.22004693312824        0.14733473710511
N            5.26166136248536       -0.81857203939508        0.81999802750811
C            6.61169524533611       -0.60682074527139        0.87431538930938
C            7.60850302336198       -1.37666051255583        1.44842743468002
C            8.91161440567790       -0.91923169354730        1.35020974761018
C            9.21176891740735        0.27986952770496        0.69477143880905
C            8.22726554522346        1.05468614853082        0.12356588952386
C            6.90080397341048        0.61699823066799        0.20217369713545
C            3.29669954783630        0.45367716643483       -0.04832129963839
C            2.28161808413204       -0.41284151724074        0.50255704708003
C            2.37096640191179       -1.81295646043225        0.38509515225994
C            1.31965895087061       -2.67103181913391        0.68922109633934
C            1.46719384301869       -4.11508493101559        0.46154114802913
C            2.65577291986914       -4.77514578010898        0.77109499798769
C            2.78890761925341       -6.13330212516976        0.55031970602051
C            1.73894297781172       -6.85768308624913        0.00996278087795
C            0.55268053282393       -6.21348081057907       -0.30294806472049
C            0.41592320456217       -4.85678701997863       -0.07703129069204
C            0.10305441686366       -2.15536603707485        1.15379955473139
C           -0.00445547515113       -0.78774000389469        1.35452198798496
C            1.08146180499496        0.07133816318968        1.07215100917677
N            0.75793011456663        1.33743914559333        1.47343055253105
C           -0.54103500484401        1.36173719340726        1.90896209098194
C           -1.31596884213284        2.42472766418031        2.34544948643865
C           -2.62820303600898        2.16633001057036        2.68726521306806
C           -3.17461007259922        0.87471638269399        2.62053293617431
C           -4.58945062660584        0.65243689521569        2.95598790814553
C           -4.98548741080271       -0.47539482474327        3.67376823707068
C           -6.31806790574318       -0.69164349825859        3.97195074796838
C           -7.28195551823696        0.21197656995005        3.55516378079455
C           -6.90179308088484        1.33627877249814        2.84069892112700
C           -5.56914751501513        1.55520002550085        2.54449626613124
C           -2.37805729356467       -0.19148536455573        2.21717846207647
C           -1.06250522956838        0.04733693896341        1.85409792118294
C            1.04041445905182        3.22144483932600       -1.11402096202842
C           -0.32014834546837        3.46543674594936       -1.18381825687396
C           -0.82743704171450        4.83026582259247       -0.99336300754781
C           -0.17795995205301        5.92282346567397       -1.56750480614737
C           -0.65991008714484        7.20538941155866       -1.38444395749143
C           -1.79414907131395        7.42169663321953       -0.61835093317710
C           -2.44661023457057        6.34437113714244       -0.04033183489489
C           -1.97149627237167        5.06036839562565       -0.22931029684034
C           -1.22712399087182        2.40644475354176       -1.38610949052462
C           -0.71536066158570        1.13541838887609       -1.60035255482682
C           -1.32605677725207       -0.12000462881601       -1.94494946762125
C           -2.63820328082527       -0.54960615837662       -2.05209268557730
C           -4.66562599089334       -3.22855616519010       -3.50461100361330
C           -5.96777014280939       -3.68616203755366       -3.58463443768550
H           -7.92171258714179       -3.65224800758917       -2.70550185596947
H           -7.25605056742813       -2.11882372740136       -0.88566354802736
H           -4.94681367537277       -1.30617096040901       -0.74058897879135
H           -2.03871424736921       -3.77856553982113       -2.89035737695235
H            0.30493924872689       -3.03540138526463       -2.71009128204381
H            1.83138878044955       -0.80243623291610       -2.01309873435107
H            3.68052907639591        3.50174873672347       -1.61568207482558
H            6.04878033037881        3.05324912487182       -1.17760259239218
H            4.77124327397348       -1.55878611132687        1.29297592603552
H            7.37774068594597       -2.30113566970794        1.95746949135435
H            9.71284631952795       -1.49697936177443        1.78670117817908
H           10.24259887174492        0.60000218302350        0.64060964871625
H            8.46842926130339        1.97937681900824       -0.37906532225607
H            3.24981205588181       -2.23201086690657       -0.08485732901356
H            3.47463017306913       -4.22360026622010        1.21037678887945
H            3.71494599441842       -6.63017631323300        0.80270438091351
H            1.84418796010872       -7.91852202778033       -0.16458644807878
H           -0.26930370255128       -6.77194510041452       -0.72770491619238
H           -0.50434586132834       -4.35658773533063       -0.34059129370806
H           -0.72196029806485       -2.81104900260931        1.38001351077097
H            1.33901081026475        2.14895791590599        1.34646112934523
H           -0.91093043857318        3.42431818877282        2.40020532501342
H           -3.25195020966374        2.97819047109133        3.03148225321459
H           -4.23856455562797       -1.17678180938372        4.01693133169566
H           -6.60690023282852       -1.56837479010229        4.53431553921408
H           -8.32331522582191        0.04165783121649        3.78716237508068
H           -7.64894815564498        2.04357734767801        2.50919360227814
H           -5.28482723381571        2.42456883728346        1.96915842406797
H           -2.78910269465467       -1.18741122383909        2.14868080025479
H            1.69673272100954        4.04231185025204       -0.86611281093261
H            0.69749023495569        5.75919153654074       -2.17943880121888
H           -0.15042537028935        8.04105066858102       -1.84290863867623
H           -2.16826025121104        8.42475177679611       -0.47368933748632
H           -3.32950310928182        6.50773314617057        0.56129538039085
H           -2.47238879194272        4.22452713011115        0.23679433386655
H           -2.28731461203484        2.59185902293617       -1.43557008145391
H           -3.45341784964371        0.13726219035924       -1.88225794735975
H           -3.94518799466134       -3.52692648609954       -4.25265445697592
H           -6.25419155133519       -4.35265357065706       -4.38585087589854
