102
 energy: -157.305286359353 gnorm: 0.000075647903 xtb: 6.7.1 (edcfbbe)
C           -7.97008313998321        3.96636665229925       -0.01957169417536
C           -8.26460251281840        2.61319457992991        0.01123598280366
C           -7.24737771806651        1.67825258048637       -0.04532467319001
C           -5.91633310979562        2.08009158561062       -0.13825531067072
C           -4.83401910877290        1.08469681295273       -0.20817907335612
C           -4.86091967060836       -0.03729005868341        0.63246235240833
C           -3.87665458738642       -1.00329179888625        0.59363932983333
C           -2.84309944592698       -0.84079920359114       -0.31651500684254
N           -1.76854160807039       -1.64918670134378       -0.58020558861015
C           -1.00987102706166       -1.08511976854355       -1.57214146085447
C            0.15192581879964       -1.55827898860735       -2.18208607328023
C            0.81530913692484       -2.80350819859233       -1.74942644125054
C            1.06844162502030       -3.79870335825393       -2.70184627252111
C            1.66042011099268       -4.99759875211037       -2.36564385173458
C            2.01437046872737       -5.21432662846535       -1.03925592185764
C            1.76612036052074       -4.20893288283068       -0.07573666247489
N            2.22154061145283       -4.63921978073753        1.14413554638645
C            2.75913082847146       -5.89402524592680        1.00977783335797
C            3.33374481649602       -6.71726629226319        1.96663354842988
C            3.79779516230307       -7.95220079858479        1.55543558259789
C            3.69436806506968       -8.36157015599946        0.22651554054629
C            3.12168970361962       -7.54634916320884       -0.72962615100878
C            2.64730928334277       -6.29901639419876       -0.34170424594307
C            1.17174518257309       -2.99182930572091       -0.40962631761479
C            0.97207660597666       -1.95277886156423        0.61887592313240
C            0.28942450627733       -2.22870226284499        1.79655346710767
C            0.08382471246520       -1.26971633803749        2.79568700293903
C           -0.64488961930648       -1.63442003255206        4.02126882704771
C           -0.21402794973458       -1.17552692330643        5.26484612033050
C           -0.89167329284940       -1.52123124526197        6.41936551943644
C           -2.01414856881742       -2.33033540950090        6.35388473787527
C           -2.45350249075006       -2.79154768420975        5.12404544316510
C           -1.77369030226623       -2.44947890458845        3.96978794096725
C            0.57754282840989        0.01797700993748        2.62488676275905
C            1.27431863834737        0.32534292025950        1.46613253073017
C            1.47369998923778       -0.65952684882519        0.46981845661549
N            2.23025096105221       -0.12720128410825       -0.53966709730250
C            2.51052446199283        1.18263705598593       -0.25170875125772
C            3.24052300839558        2.11305128969531       -0.97599712488762
C            3.39181213268099        3.37376994292780       -0.43695371605563
C            2.84231489902590        3.72234272630477        0.80587747547197
C            3.06157163428594        5.07302761289179        1.34837372530992
C            2.97930033973980        6.19636171494741        0.52783181476720
C            3.20037206661834        7.46196835579965        1.03914358697886
C            3.50959140180388        7.62882983766910        2.37902087851264
C            3.59225248215438        6.52007417177972        3.20524829357418
C            3.36847674936673        5.25434279885496        2.69566160596725
C            2.11016275681228        2.78521457857364        1.52450854943028
C            1.93706834385319        1.51345091773096        0.99815033125754
C            0.66283454735485       -0.80098392766247       -3.22750666248947
C            0.08675049775273        0.40630842480581       -3.64018610016142
C            0.70360462189593        1.17619555669399       -4.73235694997345
C            1.19302913476538        0.53826109938282       -5.87044197389090
C            1.77463892133827        1.26590739827105       -6.89247563539442
C            1.88147303159988        2.64344805983896       -6.79404310232929
C            1.39931273006519        3.28878424554615       -5.66706625191955
C            0.81375713062057        2.56292157999096       -4.64642345227640
C           -1.05683629973897        0.87561650737465       -3.00589338889858
C           -1.61628252583142        0.12473641691647       -1.98338250651970
C           -2.79254621341984        0.28502891587825       -1.17126467504696
C           -3.78954284654573        1.24721291881157       -1.10984079971567
C           -5.63268937242394        3.44385954989558       -0.17093831577664
C           -6.65046569705402        4.37795295890540       -0.10905373656116
H           -8.76534935472956        4.69630605692365        0.02613775029065
H           -9.29257665522990        2.28545481116865        0.07641429707810
H           -7.48530286146280        0.62405256170113       -0.03753102155718
H           -5.66935962371916       -0.13590606299804        1.34203933104125
H           -3.91419301449995       -1.85920365676168        1.25070583442988
H           -1.55327509458569       -2.50953467148125       -0.10723615479107
H            0.76963298966706       -3.61446934126171       -3.72344556882484
H            1.84354127986600       -5.75235672028474       -3.11506806774799
H            2.19787268477745       -4.09822730306896        1.99232626604183
H            3.41509899828002       -6.40254133813789        2.99664841089703
H            4.25110536345650       -8.61541078943488        2.27773404708092
H            4.06964204171777       -9.33469291454483       -0.05471717482393
H            3.04277005172814       -7.86844455250240       -1.75727475717896
H           -0.09993166570665       -3.22665683315029        1.94872293819307
H            0.67046310953358       -0.55787342963588        5.32659271367943
H           -0.54067400138594       -1.16046768744948        7.37578451839523
H           -2.54400911362198       -2.59928309852185        7.25604687598308
H           -3.33130985517190       -3.41932782405441        5.06434334822193
H           -2.13308988343334       -2.80256889698187        3.01419977436918
H            0.40741070942565        0.77351916790368        3.37634241649086
H            2.48023478486494       -0.60247431225899       -1.38962131803209
H            3.67956080981064        1.85747831709517       -1.92902880332889
H            3.97269035586642        4.10953955417381       -0.97346835937694
H            2.72293645887042        6.07581253464064       -0.51503315573525
H            3.12957365520564        8.32340030945169        0.39002964532865
H            3.68586243555911        8.61758832324444        2.77722041501437
H            3.83646252539522        6.64292208492472        4.25102208044407
H            3.45285866693395        4.39234777586532        3.34193047058317
H            1.66596206128129        3.04982241571698        2.47246413935260
H            1.56452677994545       -1.14099249456511       -3.71882243278424
H            1.09773364713297       -0.53425487812179       -5.96303413631978
H            2.14387126307694        0.75690738002872       -7.77159496779319
H            2.33749496873711        3.21135718103307       -7.59202210839504
H            1.48254375484587        4.36311434929122       -5.58255700021237
H            0.45596751285192        3.07007277211758       -3.76172257993035
H           -1.52222247671195        1.79565882219569       -3.32466739573592
H           -3.76942780610723        2.09867160084810       -1.77363028088721
H           -4.60407082667309        3.77094494221095       -0.22565476142189
H           -6.41364987714232        5.43245326676293       -0.12903695219677
