  133
       -188.52841388
 C         12.6832903918       -4.1290750742       -2.4936254054
 C         13.3647188914       -3.2562294349       -1.4838943875
 C         14.4460103484       -3.7414309884       -0.7538573511
 C         15.0846912152       -2.9337165802        0.1701024189
 C         14.6562814394       -1.6381662923        0.3867425214
 C         13.5767044012       -1.1357877319       -0.3382524121
 N         13.1238978690        0.1716841873       -0.1281415975
 C         14.0411518229        1.1954810017        0.1189911621
 C         15.2811192563        1.2046066540       -0.5220240388
 C         16.1860245930        2.2167361690       -0.2712558926
 C         15.8718074999        3.2369369719        0.6122547346
 C         14.6406639373        3.2349413798        1.2483487308
 C         13.7308777282        2.2241971549        1.0098793824
 C         11.7554500707        0.4431066269       -0.1727551811
 C         11.2872109453        1.6465800303       -0.7165339318
 C          9.9392083807        1.9177502989       -0.7890799657
 C          9.0271332958        0.9723645156       -0.3174463540
 C          9.4998954492       -0.2392363213        0.2362659506
 C         10.8397991483       -0.5038540774        0.3146862692
 C          8.3437240684       -1.1080609889        0.6767623825
 C          8.3382325567       -2.4354971027       -0.0883323401
 C          8.3822035463       -1.3607873970        2.1866579882
 C          7.1577842322       -0.2497568366        0.2914221311
 C          5.8295695916       -0.5247064407        0.4316827001
 C          4.8556894753        0.4129668992        0.0063760787
 C          3.4520561184        0.1319622771        0.1225285794
 C          2.9765047706       -1.2036065432        0.1705677556
 C          1.6462310647       -1.5060164284        0.2538853450
 C          0.7056913715       -0.4636162222        0.3078739889
 C          1.1636498244        0.8832503180        0.2694599776
 C          2.4894918706        1.1744591420        0.1754629132
 C         -0.0129724086        1.8334751276        0.3418157253
 C         -0.0855928540        2.7190234238       -0.9057751963
 C          0.0502210182        2.6962461813        1.6065330464
 C         -1.1793302861        0.8699244520        0.4020692751
 C         -2.5109900044        1.1458393610        0.4542229936
 C         -3.4611471998        0.0919158884        0.4803600887
 C         -4.8729450311        0.3602085501        0.5009787910
 C         -5.3834133514        1.5763072717        1.0128890034
 C         -6.7260060211        1.8556707065        1.0354659844
 C         -7.6275128433        0.9165702817        0.5280782193
 C         -7.1382342115       -0.3068363806        0.0123192832
 C         -5.8026620657       -0.5842304220        0.0013164015
 C         -8.2830430006       -1.1623458299       -0.4869250093
 C         -8.1614142006       -1.4318524260       -1.9896665310
 C         -8.3693785691       -2.4808609925        0.2882151460
 C         -9.4728066773       -0.2799033728       -0.1842316578
 C        -10.7982433335       -0.5305336556       -0.4149988053
 C        -11.7506577727        0.4350340687       -0.0519957477
 N        -13.1091000147        0.1877056185       -0.2630436445
 C        -13.9558064252        1.2258582002       -0.6590636765
 C        -13.5012009186        2.2097595632       -1.5386319454
 C        -14.3386233657        3.2368606642       -1.9257049636
 C        -15.6389551459        3.2998291525       -1.4508150085
 C        -16.0959505486        2.3247431416       -0.5787359265
 C        -15.2649534983        1.2964279177       -0.1804593866
 C        -13.6173528995       -1.1013010811       -0.0744819182
 C        -14.6282194038       -1.5950354940       -0.8995106971
 C        -15.1124980768       -2.8727394437       -0.7011163543
 C        -14.5966588101       -3.6750237300        0.3025089063
 C        -13.5852859747       -3.2003618269        1.1302291022
 C        -13.0358381280       -4.0500374098        2.2359044704
 C        -13.1088576989       -1.9138224750        0.9382106943
 C        -11.3340907044        1.6390083827        0.5303322437
 C        -10.0005672786        1.8939304299        0.7604651167
 C         -9.0529264513        0.9325721822        0.4077263403
 C         -2.9696578843       -1.2378114850        0.4777307026
 C         -1.6335649457       -1.5249435081        0.4406848722
 C         -0.7052030267       -0.4717060813        0.3877062864
 C          5.3180201545        1.6289705244       -0.5520685253
 C          6.6522081922        1.9071984616       -0.7015746527
 C          7.5978900178        0.9673443398       -0.2820390017
 C         12.9429058438       -1.9551044164       -1.2731449645
 H         11.7892035968       -3.6496473658       -2.8835510049
 H         12.4044496452       -5.0819702006       -2.0467759633
 H         13.3555824008       -4.3371278690       -3.3256752241
 H         14.7847633209       -4.7545587304       -0.9127332938
 H         15.9196671832       -3.3195218481        0.7363372411
 H         15.1458161925       -1.0137506976        1.1192061099
 H         15.5232478551        0.4168667605       -1.2203187862
 H         17.1409984529        2.2134344181       -0.7759527214
 H         16.5811720232        4.0275620209        0.8035138364
 H         14.3897989279        4.0232633606        1.9426059243
 H         12.7763000870        2.2175116854        1.5150589800
 H         12.0037166917        2.3594802842       -1.0985216177
 H          9.5934833284        2.8443519540       -1.2218289909
 H         11.2073287763       -1.4230348529        0.7474101752
 H          8.3002656193       -2.2499217000       -1.1599458781
 H          7.4706670136       -3.0286474575        0.1911340855
 H          9.2375585102       -3.0056208667        0.1349030185
 H          9.2751628108       -1.9215159707        2.4545061244
 H          7.5078157795       -1.9285676074        2.4963315377
 H          8.3895110426       -0.4154491645        2.7253978327
 H          5.5158290807       -1.4447224119        0.9008816303
 H          3.6877027723       -2.0122465998        0.0926395806
 H          1.3152400304       -2.5345033444        0.2672788997
 H          2.8188701557        2.2026236507        0.1772179078
 H         -0.1278840742        2.1024298914       -1.8012834059
 H         -0.9737206395        3.3462464099       -0.8745332436
 H          0.7911614334        3.3599530355       -0.9665060963
 H          0.0998414952        2.0634209050        2.4902502632
 H          0.9312480933        3.3337769392        1.5869104331
 H         -0.8340768541        3.3255429373        1.6797584922
 H         -2.8537119827        2.1694068954        0.4299814273
 H         -4.6964698884        2.2931391164        1.4367459439
 H         -7.0850913552        2.7878125933        1.4474227532
 H         -5.4460080259       -1.5077498957       -0.4287448578
 H         -8.1040982815       -0.4925247546       -2.5355727187
 H         -7.2632182932       -2.0082769089       -2.1980233469
 H         -9.0245052758       -1.9899089229       -2.3457569492
 H         -9.2417784326       -3.0494574022       -0.0272270000
 H         -8.4485432436       -2.2835128658        1.3554761918
 H         -7.4795931322       -3.0808024507        0.1122648011
 H        -11.1253989719       -1.4506163398       -0.8773024932
 H        -12.4914571427        2.1550256650       -1.9182183264
 H        -13.9760307604        3.9894531892       -2.6102918152
 H        -16.2912565615        4.1030180705       -1.7579295161
 H        -17.1059109705        2.3698615257       -0.1985617784
 H        -15.6193317177        0.5440583149        0.5088343160
 H        -15.0193995015       -0.9777838686       -1.6944614442
 H        -15.8932542402       -3.2515504178       -1.3441622155
 H        -14.9791400328       -4.6750071638        0.4439432337
 H        -13.1243922920       -5.1063661990        1.9936918043
 H        -11.9904833476       -3.8148675559        2.4225442505
 H        -13.5911780808       -3.8674877682        3.1563547756
 H        -12.3328585950       -1.5275807955        1.5836658570
 H        -12.0813633218        2.3663469692        0.8133846862
 H         -9.6953643034        2.8215960779        1.2205043414
 H         -3.6749099763       -2.0524368887        0.5479202221
 H         -1.2896498087       -2.5490303962        0.4560767491
 H          4.5958434600        2.3450937587       -0.9137579852
 H          6.9710816062        2.8374414413       -1.1493839706
 H         12.1126274260       -1.5591069595       -1.8404458825
