  107
       -152.50609522
 C          2.4939728669       -4.7487732194       -1.9378277700
 C          1.1934207185       -4.7685511588       -2.7541777768
 C          0.0615419861       -5.3772609915       -1.9138857514
 C          1.4110309000       -5.6618184531       -3.9779914062
 C          0.8245577829       -3.3401256524       -3.1224633002
 C          0.7132050476       -2.9010684893       -4.4377937545
 C          0.3861031117       -1.5894792336       -4.7476494342
 C          0.1633808679       -0.6909166153       -3.7206211166
 C          0.2649309834       -1.1232643638       -2.3918425218
 C          0.5935414369       -2.4237207221       -2.0943328198
 C          0.0052098528        0.0226776618       -1.4313186904
 C          1.2529133465        0.1999629090       -0.5964853210
 C          2.2643690988        1.0679788579       -0.9856481027
 C          3.4453028345        1.1430085562       -0.2713024049
 C          3.6362691178        0.3427599685        0.8500021810
 N          4.8387653276        0.3921726749        1.5675772105
 C          5.6114204836       -0.6990595284        1.9081852597
 C          5.4381435677       -2.0381292751        1.5878337507
 C          6.3865642027       -2.9365216915        2.0372500182
 C          7.4881649318       -2.5198439527        2.7817412484
 C          7.6783142057       -1.1861794082        3.0832129578
 C          6.7389970286       -0.2634519192        2.6416741872
 C          6.6289400044        1.1644822102        2.7470600226
 C          7.4064536008        2.1411854022        3.3552294560
 C          6.9922648065        3.4561135423        3.2835833545
 C          5.8130333921        3.8014482160        2.6267496100
 C          5.0226115511        2.8482124084        2.0140963843
 C          5.4440052431        1.5271798300        2.0654901363
 C          2.6208956165       -0.5201496144        1.2523207814
 C          1.4460166107       -0.5902376753        0.5320795489
 C         -1.2390372095       -0.1553678687       -0.5904459768
 C         -1.4171744362        0.6083743083        0.5582206662
 C         -2.5855050655        0.5258938716        1.2886068635
 C         -3.6102183082       -0.3194926487        0.8734140973
 N         -4.8040881524       -0.3914114319        1.6029415100
 C         -5.4105698710       -1.5463438110        2.0517024493
 C         -4.9898742862       -2.8643846262        1.9445520029
 C         -5.7820895316       -3.8424920729        2.5140599829
 C         -6.9627234995       -3.5247968354        3.1823699738
 C         -7.3750207627       -2.2136777816        3.3114016662
 C         -6.5949394599       -1.2122347030        2.7482906228
 C         -6.7030622648        0.2191015726        2.7051307470
 C         -7.6406697600        1.1225155796        3.1883531967
 C         -7.4493313642        2.4679973134        2.9456847984
 C         -6.3481772777        2.9155856185        2.2185463945
 C         -5.4011217256        2.0367297728        1.7290488476
 C         -5.5753205977        0.6849997902        1.9906485432
 C         -3.4377201089       -1.0858268441       -0.2744815143
 C         -2.2626248856       -1.0015337044       -0.9963080911
 C         -0.2675229557        1.1613712064       -2.3962548939
 C         -0.6079837424        2.4599276645       -2.1032747080
 C         -0.8740097592        3.3632230050       -3.1347238725
 C         -1.2691060760        4.7862743354       -2.7729589875
 C         -0.1234768804        5.4389844442       -1.9862983672
 C         -1.5613189914        5.6532294858       -4.0002139127
 C         -2.5365177029        4.7433881796       -1.9066680044
 C         -0.7747722059        2.9159040205       -4.4482483585
 C         -0.4326230172        1.6070992319       -4.7534255703
 C         -0.1842871802        0.7191367502       -3.7231921510
 H          2.7846003368       -5.7624967397       -1.6705887560
 H          3.2964297945       -4.3013997852       -2.5208019330
 H          2.3789597953       -4.1743774721       -1.0228141585
 H         -0.0941611713       -4.8205225816       -0.9940445923
 H          0.3008010186       -6.4057951967       -1.6525186821
 H         -0.8692955312       -5.3722433565       -2.4774237552
 H          0.5080284788       -5.7266340582       -4.5805116520
 H          1.6693767804       -6.6669828420       -3.6510882984
 H          2.2262164825       -5.2896857798       -4.5939348042
 H          0.8850220459       -3.5843602905       -5.2532019341
 H          0.3108766239       -1.2792770442       -5.7794198380
 H          0.6713813210       -2.7285413967       -1.0628608249
 H          2.1319960502        1.6833339895       -1.8627023136
 H          4.2339329123        1.8068272281       -0.5924718381
 H          4.5969436181       -2.3671304044        0.9961372067
 H          6.2731675583       -3.9847592941        1.8028671574
 H          8.2058159739       -3.2536118158        3.1169457616
 H          8.5406210529       -0.8615527677        3.6456945662
 H          8.3126712270        1.8719236381        3.8763703404
 H          7.5828175990        4.2310104538        3.7489030977
 H          5.5076495999        4.8370887224        2.5996255720
 H          4.1020215619        3.1223943959        1.5208715997
 H          2.7578864015       -1.1272948546        2.1347717440
 H          0.6613034241       -1.2562799929        0.8590254682
 H         -0.6255823535        1.2619199742        0.8939757532
 H         -2.7085346976        1.1085839762        2.1893955508
 H         -4.0690526900       -3.1181470822        1.4410018691
 H         -5.4782142171       -4.8763215321        2.4413138404
 H         -7.5557446414       -4.3186066125        3.6111999125
 H         -8.2819475695       -1.9664668009        3.8421583228
 H         -8.5021854440        0.7742116566        3.7377159362
 H         -8.1652214686        3.1869294390        3.3148305515
 H         -6.2331630729        3.9729426681        2.0310926948
 H         -4.5604798372        2.3905209490        1.1510993234
 H         -4.2354064134       -1.7326630539       -0.6076099284
 H         -2.1435905391       -1.5926458204       -1.8916250286
 H         -0.6721286923        2.7711103854       -1.0725545802
 H          0.7813097019        5.4622992499       -2.5903348239
 H         -0.3864056744        6.4603137949       -1.7193671283
 H          0.0911266617        4.8923181061       -1.0721879861
 H         -0.6829436271        5.7431506871       -4.6349656889
 H         -2.3827506285        5.2419435680       -4.5821299601
 H         -1.8455969731        6.6528327441       -3.6777969851
 H         -3.3436596308        4.2518571198       -2.4460155761
 H         -2.3670986440        4.2001997166       -0.9812148177
 H         -2.8533653198        5.7534381206       -1.6558550542
 H         -0.9709972923        3.5896397894       -5.2660753731
 H         -0.3698952950        1.2899170558       -5.7839104832
