  60
  -97.3791963697000       0.234105922193686      !
 C          7.1497467700       -0.3680093382       -2.4667197292
 C          6.4669049729        0.8460284729       -2.4945357084
 C          5.3470040126        1.0623148978       -1.7146421103
 C          4.9233752625        0.0305393306       -0.8892930426
 C          5.5951937830       -1.2133785078       -0.8730253478
 C          6.7183294169       -1.4067264207       -1.6663314529
 C          4.8738811026       -2.0550039288        0.0400556144
 C          5.0557346574       -3.3583353202        0.4837654052
 C          4.1690029301       -3.8718433213        1.4087523459
 C          3.1195447966       -3.0986758982        1.9004573544
 C          2.9174410513       -1.7999969480        1.4740813559
 C          3.7932093444       -1.2856076764        0.5286665827
 N          3.8362626710       -0.0268532465       -0.0398742963
 C          2.9418553098        1.0181760958        0.2254498198
 C          3.4335232000        2.2816319091        0.5745190503
 C          2.5716022673        3.3212204968        0.8542999107
 C          1.2065610099        3.0887095630        0.7972534600
 S         -0.0518402761        4.2544148052        1.1404095247
 C         -1.2831609844        3.0539382741        0.8206166390
 C         -2.6522226838        3.2429268024        0.9176284424
 C         -3.4905989416        2.1855344320        0.6308288263
 C         -2.9701399722        0.9505775632        0.2278362092
 N         -3.8343741323       -0.1128036632       -0.0688576064
 C         -5.0333633529       -0.0449224388       -0.7587000310
 C         -5.6120096779        1.0228621285       -1.4299252752
 C         -6.8183169774        0.8091564804       -2.0700033793
 C         -7.4397276507       -0.4373257569       -2.0589112671
 C         -6.8547078788       -1.5137195759       -1.4231174365
 C         -5.6416176663       -1.3227040820       -0.7746804263
 C         -4.7562274493       -2.2023096564       -0.0687851112
 C         -4.7516317052       -3.5462644450        0.2692047906
 C         -3.6584625817       -4.0199377168        0.9775513995
 C         -2.6279913770       -3.1490210033        1.3183602863
 N         -2.6035725865       -1.8619746810        1.0111233860
 C         -3.6475564548       -1.4133251926        0.3341683428
 C         -1.5996553868        0.7578052437        0.1494695188
 C         -0.7445375666        1.8087903861        0.4538879085
 C          0.6950456408        1.8272999666        0.4480742136
 C          1.5750474082        0.7933920245        0.1541404281
 H          8.0228779890       -0.4964820073       -3.0889831002
 H          6.8184131126        1.6348894043       -3.1431680494
 H          4.8140579815        2.0003726330       -1.7575247816
 H          7.2374833573       -2.3532729380       -1.6569984119
 H          5.8783259403       -3.9515704750        0.1136322453
 H          4.2916446516       -4.8836469735        1.7658686916
 H          2.4500399410       -3.5222666479        2.6345757666
 H          2.1104769594       -1.2054704942        1.8750856522
 H          4.5002685119        2.4309768139        0.6415013747
 H          2.9490325424        4.2944158392        1.1267923836
 H         -3.0520316617        4.1967414195        1.2243777233
 H         -4.5573571087        2.3033125005        0.7399159739
 H         -5.1304782312        1.9874801452       -1.4722167379
 H         -7.2868747913        1.6277195595       -2.5959329752
 H         -8.3837468435       -0.5618432390       -2.5676947529
 H         -7.3214009348       -2.4870948002       -1.4329002573
 H         -5.5671179220       -4.1978483673       -0.0090126835
 H         -3.5982392713       -5.0575613857        1.2659778451
 H         -1.7659471478       -3.5021403942        1.8680711172
 H         -1.2078023638       -0.2051646181       -0.1321285984
 H          1.1977931403       -0.1755274101       -0.1332182103
  60
  -97.3791253086000       0.217147573026417      !
 C          7.1569723660       -0.2468350805       -2.4679942598
 C          6.4806250830        0.9701715949       -2.4233154848
 C          5.3635972709        1.1465861527       -1.6294160556
 C          4.9358117865        0.0711971048       -0.8639449611
 C          5.5996336407       -1.1754680167       -0.9240074129
 C          6.7204449600       -1.3282758406       -1.7294223229
 C          4.8717479746       -2.0674073836       -0.0655694010
 C          5.0415660794       -3.3989185339        0.2901935533
 C          4.1477613347       -3.9656661862        1.1763170650
 C          3.1045407834       -3.2175437841        1.7173044935
 C          2.9152822411       -1.8911459693        1.3794130572
 C          3.7964937019       -1.3224677831        0.4708158772
 N          3.8498154971       -0.0302843624       -0.0159592670
 C          2.9507979258        1.0005352010        0.2854111617
 C          3.4393641992        2.2542278231        0.6730380248
 C          2.5760837267        3.2931975930        0.9501406889
 C          1.2117919203        3.0688262904        0.8556813371
 S         -0.0477598876        4.2452662003        1.1540047868
 C         -1.2771626803        3.0536601380        0.7972507059
 C         -2.6467617380        3.2597537350        0.8356700878
 C         -3.4850500260        2.2047345528        0.5408680819
 C         -2.9619649818        0.9530690768        0.1984276535
 N         -3.8274066754       -0.1159151868       -0.0763643476
 C         -4.9876624862       -0.0772142184       -0.8296975207
 C         -5.5045284908        0.9497495635       -1.6062251219
 C         -6.6784608400        0.7113980100       -2.2956114418
 C         -7.3274869455       -0.5192193090       -2.2273065508
 C         -6.8049935674       -1.5553969165       -1.4799398890
 C         -5.6245044529       -1.3401074674       -0.7809125821
 C         -4.8000506736       -2.1782105057        0.0403029494
 C         -4.8490999074       -3.4879215619        0.4905645412
 C         -3.8082484144       -3.9225101658        1.2962878955
 C         -2.7738149169       -3.0489785066        1.6182523810
 N         -2.6986429421       -1.7936753836        1.2057417205
 C         -3.6939901915       -1.3825719607        0.4380911293
 C         -1.5920917928        0.7469208659        0.1643363288
 C         -0.7370643399        1.7993464611        0.4651201504
 C          0.7024404153        1.8107320307        0.4916550856
 C          1.5844323573        0.7789067414        0.1958586411
 H          8.0277903713       -0.3435661392       -3.0991871691
 H          6.8344964885        1.7936866857       -3.0259945496
 H          4.8357548942        2.0883477197       -1.6183828036
 H          7.2335347206       -2.2769492720       -1.7772311229
 H          5.8596676462       -3.9731528711       -0.1178868862
 H          4.2599767176       -5.0004866825        1.4639939914
 H          2.4294322459       -3.6835769012        2.4197977597
 H          2.1135895688       -1.3176906036        1.8196507204
 H          4.5049323313        2.3981442287        0.7644867707
 H          2.9513830772        4.2611036787        1.2433366987
 H         -3.0467545849        4.2247829845        1.1047951080
 H         -4.5545088617        2.3357109236        0.5986125838
 H         -4.9993940634        1.8999478684       -1.6873030692
 H         -7.0991051735        1.4964908442       -2.9062074873
 H         -8.2444552742       -0.6640089478       -2.7785403576
 H         -7.2948177448       -2.5166445367       -1.4420817762
 H         -5.6663517740       -4.1427219612        0.2253287704
 H         -3.7924530361       -4.9319074422        1.6763427052
 H         -1.9529008506       -3.3725763193        2.2439407469
 H         -1.2013418555       -0.2272318209       -0.0783909385
 H          1.2089141165       -0.1830339436       -0.1161421870
  60
  -97.3788425847000       0.160999331031170      !
 C          7.1363036303       -0.4305889489       -2.4142361443
 C          6.4565106128        0.7850439433       -2.4461958318
 C          5.3444523199        1.0111367581       -1.6579425256
 C          4.9257346211       -0.0124218508       -0.8199573822
 C          5.5937283252       -1.2580827647       -0.7996325384
 C          6.7094097130       -1.4612401687       -1.6011976222
 C          4.8761003729       -2.0911377594        0.1242042268
 C          5.0548420448       -3.3929579284        0.5730529236
 C          4.1712122504       -3.8986008260        1.5053174364
 C          3.1283437319       -3.1186588904        2.0000258268
 C          2.9305667215       -1.8206235237        1.5694845505
 C          3.8018409595       -1.3143394972        0.6157131221
 N          3.8455415970       -0.0596298429        0.0399433805
 C          2.9501581916        0.9896221982        0.2848522551
 C          3.4441556110        2.2596399924        0.6057234259
 C          2.5845840006        3.3131504159        0.8344644521
 C          1.2191688295        3.0888527842        0.7560161038
 S         -0.0339714560        4.2825847471        1.0045622526
 C         -1.2698851180        3.0828212094        0.7014600985
 C         -2.6382193600        3.3031539345        0.7057812711
 C         -3.4828766278        2.2416572367        0.4601128498
 C         -2.9676763083        0.9664339901        0.2056431245
 N         -3.8501666285       -0.0963046340       -0.0366117819
 C         -3.7486913184       -1.3849309197        0.4592755594
 C         -2.8575089539       -1.9108431507        1.3834531215
 C         -2.9991648440       -3.2397372191        1.7357190677
 C         -4.0058498063       -4.0348267297        1.1931700713
 C         -4.9139656386       -3.5126510050        0.2945686767
 C         -4.7924802945       -2.1787697944       -0.0727909880
 C         -5.5588883239       -1.3201788892       -0.9283540841
 C         -6.6745835139       -1.4617876902       -1.7380843968
 C         -7.1089413646       -0.3380549800       -2.4237870442
 C         -6.4244907856        0.8653638047       -2.2798677401
 N         -5.3570289151        1.0325258860       -1.5158114581
 C         -4.9467656062       -0.0411115717       -0.8619117853
 C         -1.5982842124        0.7528467033        0.1727473256
 C         -0.7356689526        1.8122340989        0.4282915774
 C          0.7040800505        1.8167354335        0.4521451525
 C          1.5830444591        0.7682872602        0.2084257913
 H          8.0025342328       -0.5671064818       -3.0443773620
 H          6.8038626384        1.5673866037       -3.1048311540
 H          4.8134624770        1.9500334169       -1.7048028529
 H          7.2257406965       -2.4092670583       -1.5888325139
 H          5.8721819904       -3.9916963008        0.2003115077
 H          4.2908901392       -4.9095391900        1.8656079585
 H          2.4615023482       -3.5366575557        2.7398445718
 H          2.1310566931       -1.2182578311        1.9743348800
 H          4.5107015907        2.4044039446        0.6837242572
 H          2.9631856539        4.2936153554        1.0771619353
 H         -3.0310373153        4.2877344449        0.9044587756
 H         -4.5506982765        2.3848426779        0.4514452882
 H         -2.0882000931       -1.3005651231        1.8311937076
 H         -2.3158929669       -3.6700609194        2.4529096539
 H         -4.0807736142       -5.0696145973        1.4923204283
 H         -5.7077481807       -4.1209630742       -0.1118883900
 H         -7.1840914125       -2.4098535170       -1.8314244690
 H         -7.9722716676       -0.3875709556       -3.0687554181
 H         -6.7498432342        1.7517733434       -2.8074551358
 H         -1.2031404771       -0.2218117397       -0.0683186887
 H          1.2073092446       -0.2083758010       -0.0552125466
  60
  -97.3787890187000       0.152127189659295      !
 C          4.4027170520       -2.1091356835       -3.3087489384
 C          3.3697580964       -1.1752666009       -3.2678367869
 C          3.0962748767       -0.4510545139       -2.1233411764
 C          3.8808421677       -0.6881380825       -1.0037442017
 C          4.9457215708       -1.6172585653       -1.0427875119
 C          5.2012614215       -2.3327794870       -2.2051813369
 C          5.5683296991       -1.5794229915        0.2507872401
 C          6.6337656962       -2.2657194185        0.8183299241
 C          6.9685473797       -1.9990616399        2.1306920836
 C          6.2462486779       -1.0730467423        2.8802176666
 C          5.1823084767       -0.3780296815        2.3379719327
 C          4.8565969028       -0.6237899701        1.0117579817
 N          3.8397636533       -0.0934864320        0.2423344147
 C          2.9279157453        0.8895107710        0.6489420559
 C          3.3976954866        2.0677976775        1.2412402240
 C          2.5198372650        3.0485948473        1.6523964957
 C          1.1623174008        2.8535127739        1.4531253336
 S         -0.1118508411        3.9670123006        1.8954709261
 C         -1.3202081577        2.8677284481        1.2708233085
 C         -2.6906953246        3.0697796950        1.2855682923
 C         -3.5107292894        2.0977888893        0.7515032859
 C         -2.9688815364        0.9385405858        0.1847413621
 N         -3.8170649760       -0.0375292146       -0.3572012203
 C         -4.9641881406        0.1773186252       -1.1032708809
 C         -5.4730242446        1.3562169765       -1.6294771818
 C         -6.6362231418        1.2854582928       -2.3727410384
 C         -7.2827097219        0.0735120466       -2.6032029079
 C         -6.7645315524       -1.1085575948       -2.1142264235
 C         -5.5949667082       -1.0617735299       -1.3669615403
 C         -4.7772207815       -2.0706451006       -0.7591178495
 C         -4.8223422452       -3.4511394470       -0.6462975994
 C         -3.7890209233       -4.0668204200        0.0426217330
 C         -2.7668802192       -3.2946839437        0.5862374462
 N         -2.6966319581       -1.9760332730        0.4968295925
 C         -3.6833725718       -1.3915754671       -0.1620647461
 C         -1.5982858279        0.7303513247        0.1860144848
 C         -0.7626649313        1.6927555880        0.7382145166
 C          0.6731154326        1.6828768479        0.8485505644
 C          1.5680375017        0.6950604914        0.4566194384
 H          4.5828447674       -2.6567720740       -4.2219652248
 H          2.7712514853       -1.0104535706       -4.1519095858
 H          2.3051506601        0.2836666490       -2.1085003987
 H          6.0118581374       -3.0449225376       -2.2411875861
 H          7.1828571464       -2.9951290539        0.2420581819
 H          7.7950599093       -2.5201399284        2.5905537799
 H          6.5211378380       -0.8975902149        3.9100297084
 H          4.6170002571        0.3233344760        2.9332527150
 H          4.4608073886        2.2082226759        1.3620234407
 H          2.8794463826        3.9561980729        2.1112954415
 H         -3.1064004271        3.9658457084        1.7190518786
 H         -4.5818422084        2.2200023511        0.7911646633
 H         -4.9702266720        2.2996152695       -1.4838497599
 H         -7.0501791812        2.1916963407       -2.7890564615
 H         -8.1923822752        0.0617445706       -3.1845444366
 H         -7.2491391093       -2.0528627316       -2.3113770209
 H         -5.6301677491       -4.0233843554       -1.0783986938
 H         -3.7689655880       -5.1389058657        0.1605949296
 H         -1.9516898624       -3.7585183753        1.1254122588
 H         -1.1927748259       -0.1790617505       -0.2246768716
 H          1.2064019822       -0.2233503645        0.0210380528
  60
  -97.3785934305000       0.123686052538427      !
 C          6.9012578775        0.2150455483       -3.0419809239
 C          6.2148284914        1.3978865926       -2.7762798818
 C          5.1765692811        1.4408925021       -1.8656119980
 C          4.8401172198        0.2646132740       -1.2111620901
 C          5.5148301545       -0.9455101206       -1.4921368672
 C          6.5550961031       -0.9633568230       -2.4118728890
 C          4.8887677306       -1.9582980422       -0.6891103278
 C          5.1148800331       -3.3178636217       -0.5191731201
 C          4.3225593945       -4.0139221006        0.3715342217
 C          3.3252342072       -3.3682650706        1.0990335187
 C          3.0809429267       -2.0167876800        0.9470495824
 C          3.8586413851       -1.3166524332        0.0359709250
 N          3.8411090015        0.0260969974       -0.2877995449
 C          2.9637568525        0.9832986186        0.2385884791
 C          3.4734103756        2.1735667609        0.7704996402
 C          2.6284548977        3.1316626278        1.2896194015
 C          1.2638233733        2.8896648698        1.2871061617
 S          0.0283210750        3.9673772489        1.8944237471
 C         -1.2197150665        2.8261898757        1.4486429260
 C         -2.5823563142        2.9929258999        1.6386427899
 C         -3.4387331558        1.9995348818        1.2145796485
 C         -2.9412666375        0.8373812585        0.6151803833
 N         -3.8376632040       -0.1547373107        0.1929508362
 C         -3.7732974102       -0.8845473272       -0.9826820058
 C         -2.9075572410       -0.7585620873       -2.0596627265
 C         -3.0855027605       -1.6059777455       -3.1371103601
 C         -4.1045799617       -2.5551272989       -3.1585858713
 C         -4.9887512689       -2.6677072352       -2.1047901824
 C         -4.8294581648       -1.8260663118       -1.0116615974
 C         -5.5667560238       -1.6464307647        0.2049003796
 C         -6.6796473451       -2.2310420445        0.7880835385
 C         -7.0827942015       -1.7408627217        2.0203095473
 C         -6.3703757805       -0.7046114530        2.6165748455
 N         -5.3049118844       -0.1265248756        2.0858925631
 C         -4.9248880068       -0.5942125674        0.9087592255
 C         -1.5759387925        0.6580120266        0.4534998003
 C         -0.7025337453        1.6610353986        0.8578167339
 C          0.7340736774        1.6963970083        0.7657377010
 C          1.5970500249        0.7463922330        0.2330528837
 H          7.7088059508        0.2235436869       -3.7588442611
 H          6.4976115596        2.3010554501       -3.2967057059
 H          4.6390083248        2.3587607236       -1.6803271257
 H          7.0767943710       -1.8833205334       -2.6287206116
 H          5.8983367173       -3.8145400515       -1.0714011760
 H          4.4801526635       -5.0722831859        0.5167922409
 H          2.7315027902       -3.9357423564        1.8005102888
 H          2.3180245715       -1.5226031720        1.5299179913
 H          4.5412038952        2.3290850878        0.7829834649
 H          3.0185970595        4.0500333553        1.6994487161
 H         -2.9625055860        3.8890738561        2.1029611083
 H         -4.5022828506        2.1023327627        1.3514485226
 H         -2.1299525021       -0.0104112111       -2.0715572924
 H         -2.4211227337       -1.5255967934       -3.9846563733
 H         -4.2084798501       -3.1998177725       -4.0183738391
 H         -5.7932749434       -3.3871374415       -2.1271963547
 H         -7.2110680149       -3.0357975940        0.3014672337
 H         -7.9436436134       -2.1546424528        2.5214468415
 H         -6.6711360029       -0.3095642762        3.5776408872
 H         -1.1902846612       -0.2586762638        0.0353166610
 H          1.2086008513       -0.1650051343       -0.1948875881
  60
  -97.3784990833000       0.111933931551005      !
 C          7.0060977122        0.1832121244       -2.9544679101
 C          6.3219735700        1.3751252399       -2.7262382826
 C          5.2437990952        1.4351493644       -1.8640958477
 C          4.8644400821        0.2666593617       -1.2192592029
 C          5.5366748252       -0.9527459349       -1.4642321107
 C          6.6174280394       -0.9877807804       -2.3353733567
 C          4.8657155831       -1.9535403914       -0.6827519091
 C          5.0707918261       -3.3140335171       -0.4942719924
 C          4.2363749804       -3.9956054044        0.3686739645
 C          3.2178317996       -3.3343624895        1.0512192847
 C          2.9940638814       -1.9816282274        0.8800765047
 C          3.8140606028       -1.2959556074       -0.0046063901
 N          3.8239763162        0.0450891001       -0.3385242840
 C          2.9489093354        1.0139791218        0.1692293027
 C          3.4613293787        2.1958582117        0.7172845717
 C          2.6186140598        3.1500728286        1.2471573295
 C          1.2535241860        2.9102771804        1.2446826316
 S          0.0230487219        3.9643288741        1.9024692413
 C         -1.2258447493        2.8229781870        1.4588293237
 C         -2.5822585308        2.9613644467        1.7078523009
 C         -3.4393498284        1.9659784860        1.2891767294
 C         -2.9482962765        0.8374579191        0.6251716462
 N         -3.8433901809       -0.1578700408        0.2055527104
 C         -3.8475378617       -0.8012876419       -1.0198047944
 C         -3.0734226389       -0.5632951722       -2.1461293012
 C         -3.3078477637       -1.3370487146       -3.2671693667
 C         -4.2918926677       -2.3229110628       -3.2799642710
 C         -5.0827467262       -2.5496154036       -2.1716055712
 C         -4.8669024915       -1.7826680617       -1.0340535202
 C         -5.5049776633       -1.7222834705        0.2487791303
 C         -6.5369168491       -2.3986894871        0.8796246146
 C         -6.8486330908       -2.0167753938        2.1751521396
 C         -6.1305830091       -0.9918150075        2.7843735176
 N         -5.1410441328       -0.3270521508        2.2096140049
 C         -4.8476578272       -0.6935807065        0.9734489309
 C         -1.5890615974        0.6876710965        0.3980529986
 C         -0.7141723098        1.6851143998        0.8121768872
 C          0.7203288045        1.7308997691        0.6965946870
 C          1.5804111943        0.7883043193        0.1464862547
 H          7.8460557769        0.1786425210       -3.6330774631
 H          6.6392189754        2.2721537501       -3.2373764817
 H          4.7093252578        2.3602617249       -1.7082330334
 H          7.1370365587       -1.9150992630       -2.5240330241
 H          5.8710630790       -3.8224434756       -1.0105445453
 H          4.3769725105       -5.0544037886        0.5277376689
 H          2.5905980949       -3.8902116695        1.7325565375
 H          2.2144340935       -1.4761920109        1.4301267753
 H          4.5298382958        2.3450756301        0.7400699551
 H          3.0116311148        4.0598529854        1.6730471466
 H         -2.9563934277        3.8349275976        2.2178480850
 H         -4.4974629707        2.0416127661        1.4780373469
 H         -2.3234237817        0.2128004840       -2.1572594786
 H         -2.7170818972       -1.1695899392       -4.1555020088
 H         -4.4425892915       -2.9068460547       -4.1754435831
 H         -5.8588187504       -3.2998546419       -2.1855159195
 H         -7.0749935959       -3.1924881162        0.3821492656
 H         -7.6417300439       -2.5079701620        2.7166845440
 H         -6.3606985234       -0.6819921296        3.7948708781
 H         -1.2103403765       -0.2040413921       -0.0772740684
 H          1.1887369837       -0.1135642570       -0.2981327937
