  60
        -97.77121551
 C          7.1497467700       -0.3680093382       -2.4667197292
 C          6.4669049729        0.8460284729       -2.4945357084
 C          5.3470040126        1.0623148978       -1.7146421103
 C          4.9233752625        0.0305393306       -0.8892930426
 C          5.5951937830       -1.2133785078       -0.8730253478
 C          6.7183294169       -1.4067264207       -1.6663314529
 C          4.8738811026       -2.0550039288        0.0400556144
 C          5.0557346574       -3.3583353202        0.4837654052
 C          4.1690029301       -3.8718433213        1.4087523459
 C          3.1195447966       -3.0986758982        1.9004573544
 C          2.9174410513       -1.7999969480        1.4740813559
 C          3.7932093444       -1.2856076764        0.5286665827
 N          3.8362626710       -0.0268532465       -0.0398742963
 C          2.9418553098        1.0181760958        0.2254498198
 C          3.4335232000        2.2816319091        0.5745190503
 C          2.5716022673        3.3212204968        0.8542999107
 C          1.2065610099        3.0887095630        0.7972534600
 S         -0.0518402761        4.2544148052        1.1404095247
 C         -1.2831609844        3.0539382741        0.8206166390
 C         -2.6522226838        3.2429268024        0.9176284424
 C         -3.4905989416        2.1855344320        0.6308288263
 C         -2.9701399722        0.9505775632        0.2278362092
 N         -3.8343741323       -0.1128036632       -0.0688576064
 C         -5.0333633529       -0.0449224388       -0.7587000310
 C         -5.6120096779        1.0228621285       -1.4299252752
 C         -6.8183169774        0.8091564804       -2.0700033793
 C         -7.4397276507       -0.4373257569       -2.0589112671
 C         -6.8547078788       -1.5137195759       -1.4231174365
 C         -5.6416176663       -1.3227040820       -0.7746804263
 C         -4.7562274493       -2.2023096564       -0.0687851112
 C         -4.7516317052       -3.5462644450        0.2692047906
 C         -3.6584625817       -4.0199377168        0.9775513995
 C         -2.6279913770       -3.1490210033        1.3183602863
 N         -2.6035725865       -1.8619746810        1.0111233860
 C         -3.6475564548       -1.4133251926        0.3341683428
 C         -1.5996553868        0.7578052437        0.1494695188
 C         -0.7445375666        1.8087903861        0.4538879085
 C          0.6950456408        1.8272999666        0.4480742136
 C          1.5750474082        0.7933920245        0.1541404281
 H          8.0228779890       -0.4964820073       -3.0889831002
 H          6.8184131126        1.6348894043       -3.1431680494
 H          4.8140579815        2.0003726330       -1.7575247816
 H          7.2374833573       -2.3532729380       -1.6569984119
 H          5.8783259403       -3.9515704750        0.1136322453
 H          4.2916446516       -4.8836469735        1.7658686916
 H          2.4500399410       -3.5222666479        2.6345757666
 H          2.1104769594       -1.2054704942        1.8750856522
 H          4.5002685119        2.4309768139        0.6415013747
 H          2.9490325424        4.2944158392        1.1267923836
 H         -3.0520316617        4.1967414195        1.2243777233
 H         -4.5573571087        2.3033125005        0.7399159739
 H         -5.1304782312        1.9874801452       -1.4722167379
 H         -7.2868747913        1.6277195595       -2.5959329752
 H         -8.3837468435       -0.5618432390       -2.5676947529
 H         -7.3214009348       -2.4870948002       -1.4329002573
 H         -5.5671179220       -4.1978483673       -0.0090126835
 H         -3.5982392713       -5.0575613857        1.2659778451
 H         -1.7659471478       -3.5021403942        1.8680711172
 H         -1.2078023638       -0.2051646181       -0.1321285984
 H          1.1977931403       -0.1755274101       -0.1332182103
