102
 energy: -141.724939059323 gnorm: 0.000047324125 xtb: 6.7.1 (edcfbbe)
C           -5.86647250087322       -5.44229969711844        0.47037018344119
C           -5.10081504030335       -4.17106787111154        0.26761322296690
C           -4.01807155744456       -3.86120585662076        1.08644875586308
C           -3.28735765581362       -2.69776992928185        0.93103729393697
C           -2.17133895399458       -2.43286667092242        1.90114674347476
C           -3.64192422284792       -1.79458839839554       -0.09117787329687
N           -2.89359211202482       -0.62225423917795       -0.29170070184843
C           -1.52308691761078       -0.70349414499333       -0.34476874255847
C           -0.87785391811028       -1.87454136535500       -0.84616710869171
C            0.47480228484922       -1.94577060195676       -0.89469782464815
C            1.28702106689967       -0.86227097157802       -0.44353144482280
C            0.64709022796302        0.34359497015958       -0.00159523086926
C           -0.71311506715345        0.39009104467113        0.05902379100736
C            1.49750170206411        1.50017156486181        0.47593617707447
C            1.69654294304999        1.43754347926946        1.98760465377612
C            2.11442920369267        2.56252259158628        2.70068104579336
C            2.35196504024185        2.49326750907745        4.05952767150628
C            2.18804507430756        1.29820298981422        4.74223924514680
C            1.78103168440947        0.17167805502047        4.04295286847745
C            1.53948683957859        0.24250618635274        2.68423108278318
C            0.80468802077006        2.76576263799134        0.00060031218110
C            0.97350488139606        3.18021843152904       -1.31776367975856
C            0.32768005460393        4.30324914229797       -1.79727819164063
C           -0.51356874009605        5.03182066672100       -0.96785795837671
C           -0.71404128554949        4.61038806150523        0.33505325281403
C           -0.06756342808383        3.48522940218036        0.81502607355287
C            2.90510892764190        1.41647593095795       -0.07812783206505
C            3.73452342956404        2.53038178225906       -0.09605549779434
C            5.03781720781528        2.43626772143611       -0.53593777110494
C            5.54004285041719        1.22099896073964       -0.99952879200603
C            4.74470928502102        0.09026450836592       -1.00598589261909
C            3.43641543519792        0.18791124093718       -0.51144962240467
N            2.64892828194527       -0.95813516514357       -0.45283540924620
C            3.31572290526134       -2.16248000494889       -0.23801419948994
C            2.74206236817528       -3.15371977948411        0.57317977378276
C            3.42793840904389       -4.31865981346649        0.83283948840315
C            4.69687678760960       -4.50904113301499        0.30577299111723
C            5.28032942796338       -3.51387129397568       -0.47403984653664
C            4.61099649222616       -2.33828072740552       -0.75529692938760
C            5.16352167398875       -1.23017116073669       -1.62638613506137
C            6.67586233443518       -1.33650820054017       -1.82518642583590
C            4.48880111169642       -1.32741172147314       -3.01361063993714
C           -3.52072878358642        0.62717782882238       -0.43913098896883
C           -4.50531240191661        1.03734724652798        0.48312688605345
C           -4.91170999870434        0.18568954703437        1.64931783493557
C           -5.09769977971001        2.27978159560842        0.32794171128762
C           -4.75585474264896        3.13706654389847       -0.70730742203409
C           -5.41717162266583        4.47090028443617       -0.87150434245737
C           -3.78558976886455        2.71322967185526       -1.61020646793501
C           -3.16117909787806        1.48473249853646       -1.49776068181631
C           -2.15555613096320        1.10777863399454       -2.54666268113450
C           -4.74167505465231       -2.08748059727656       -0.92475989579806
C           -5.16001510212954       -1.18148768962838       -2.04454288166367
C           -5.44311329715227       -3.26543819641530       -0.72525078083789
H           -6.68001495137207       -5.52583893298133       -0.24592933598739
H           -5.20979874647927       -6.30445961292653        0.35384378216359
H           -6.28328305325563       -5.47846604165257        1.47690356010653
H           -3.74761437704457       -4.54494650790759        1.87887843150156
H           -1.98032397726430       -1.37042941691990        2.02956869142436
H           -1.24770485449057       -2.89608209572924        1.55383102684458
H           -2.41841996508040       -2.86334073788599        2.87005475612901
H           -1.48735793769088       -2.68038159708519       -1.22775783723639
H            0.96380007894318       -2.80979020944741       -1.31994143456077
H           -1.20776550909003        1.26813482542389        0.44601632268075
H            2.24959382022997        3.50419070302089        2.19053032696386
H            2.66962116552975        3.37975052812334        4.59075163382199
H            2.37595966382953        1.24466327913722        5.80460222897855
H            1.65009716931589       -0.76849631624512        4.56005532637172
H            1.21745206399082       -0.64608015262702        2.16203075298565
H            1.62459629664745        2.61687728683184       -1.97233129806240
H            0.47813926883138        4.61185606683376       -2.82215990122186
H           -1.01176023245335        5.91548994174473       -1.33915600363412
H           -1.38226195897610        5.15798253183674        0.98494785592834
H           -0.24106770866469        3.16563178108279        1.83268752871153
H            3.34754649267506        3.48570694578199        0.22428850524289
H            5.66888921758518        3.31252354960809       -0.54474768048276
H            6.55123390674242        1.18685863423377       -1.36831625935384
H            1.77266813812304       -2.98132884421477        1.01491516279519
H            2.98005383276967       -5.07651121394445        1.45906557039946
H            5.24000607247384       -5.41988720059611        0.50686674031380
H            6.27431349719410       -3.67984199631285       -0.85583545669573
H            7.19873499997534       -1.26661055180000       -0.87381457968919
H            6.92655840675932       -2.28111629619190       -2.30064741577672
H            7.02519151944524       -0.54439464175328       -2.48200220039063
H            4.73835855333299       -2.27742176156384       -3.48181540576567
H            4.83582876384980       -0.51779707793872       -3.65241020546192
H            3.40688489387408       -1.25826393277027       -2.92935289505628
H           -4.04410510751873       -0.24540918950736        2.14284261349635
H           -5.45757350163650        0.78572482083506        2.37411220742045
H           -5.55764828287353       -0.63316846576442        1.33246579096360
H           -5.84674323611564        2.58992707104695        1.04358805117737
H           -6.02631371067415        4.71388290870774       -0.00424925548181
H           -4.67187689948611        5.25289267737389       -1.00861315252824
H           -6.05908175685891        4.46704557215425       -1.75335114197235
H           -3.51396997483874        3.36074029650739       -2.43163837628491
H           -1.16464685464757        1.46506619916229       -2.26442175828690
H           -2.09220020332946        0.03194476262432       -2.69060396945815
H           -2.42195809479033        1.57337990582088       -3.49378889531750
H           -5.69178487734882       -0.30852357849871       -1.66582507390338
H           -5.82322289539757       -1.71338267266025       -2.72326464119262
H           -4.30025008862615       -0.82803812452801       -2.60832089031178
H           -6.28011859778108       -3.48617121634502       -1.37324625380341
