102
 energy: -141.827898899335 gnorm: 0.000047832165 xtb: 6.7.1 (edcfbbe)
C           -5.81511484601503       -5.33692383983581        0.17482484990979
C           -4.97974002041078       -4.10335641355182        0.00630825837318
C           -3.95756184610067       -3.80242124526976        0.89185064952301
C           -3.19500877123618       -2.64998384868198        0.77226467506601
C           -2.14075591936476       -2.39330173199203        1.81005208717601
C           -3.44356948517920       -1.76759913813387       -0.29163646080566
N           -2.67046091356934       -0.59685543093432       -0.44184083181371
C           -1.28340728834636       -0.66997550947749       -0.39335346703244
C           -0.60362717512368       -1.81522827966771       -0.81451773695156
C            0.77227557173018       -1.86993989652882       -0.76044325786159
C            1.50899194365585       -0.79615227656518       -0.26460780771714
C            0.84234884858413        0.35756049297288        0.15472597760912
C           -0.53733408147805        0.40926522817994        0.08450332677808
C            1.66470397319901        1.47457461362695        0.77629189972479
C            1.95256673213026        1.06700388675907        2.22313278366626
C            3.20202204173131        1.25113371543899        2.80095384917399
C            3.44055584822612        0.86396901480197        4.10912589242869
C            2.43393808635583        0.28888373659027        4.86400143476919
C            1.18146866786000        0.10970828412581        4.30106680080121
C            0.94510925222886        0.49592741566098        2.99463413265464
C            0.90652893585028        2.78807094636144        0.69357159313750
C            0.59602838259740        3.28729018246494       -0.56900154968116
C           -0.10809769330162        4.46665336160746       -0.71260129057327
C           -0.51656303950054        5.17108585704243        0.40845900457174
C           -0.20325056045290        4.68981819050240        1.66659724845115
C            0.50461764886481        3.50676049677098        1.80978176177667
C            2.97360691776519        1.57727040060015        0.01447624487302
C            3.64950295925351        2.77693687131483       -0.14760275976821
C            4.89791696544344        2.79901681651572       -0.74217136434470
C            5.48015256021575        1.62625444355579       -1.19529525431693
C            4.81857156493119        0.41511905728109       -1.07676287844727
C            3.56522767537808        0.40375848128809       -0.45513304576855
N            2.90301004562173       -0.80778538695843       -0.28749635770942
C            3.68102804566424       -1.94304905333206       -0.09003824394716
C            3.24782130867306       -2.96016077214851        0.75711035463064
C            4.06152449430796       -4.04615716030020        1.00979361588318
C            5.32259967752696       -4.10853206921368        0.44254266586359
C            5.76054592029111       -3.08906312393507       -0.38714851271622
C            4.95220854917478       -2.00128549549193       -0.67689148158179
C            5.32791354852886       -0.89630909545522       -1.64807503168283
C            6.82636280366030       -0.86133694649996       -1.95046356545381
C            4.57203011706645       -1.15439331849583       -2.97029960526665
C           -3.28220222510103        0.66431533506141       -0.61901660018493
C           -4.28616692648740        1.10019435328768        0.25793199407006
C           -4.75250854641051        0.26317765206067        1.41248255349390
C           -4.85607662205906        2.35046555807905        0.06705064706717
C           -4.45479145008495        3.19329218314791       -0.95740449119032
C           -5.08611759962475        4.53970944960408       -1.14823841315706
C           -3.46702723847709        2.74270621996238       -1.81927171366829
C           -2.87990601170101        1.49561458678525       -1.67658211157514
C           -1.83737724017026        1.08305440321223       -2.67401963192869
C           -4.47462600996145       -2.05857636288546       -1.19926275983444
C           -4.78281460145598       -1.16942860692014       -2.36776587355557
C           -5.22502193993126       -3.21158348720635       -1.02693823135836
H           -6.13658404548053       -5.72146514292343       -0.79086814789658
H           -5.26074482880230       -6.11273517211854        0.69807734967926
H           -6.70766959468395       -5.10647617966649        0.75860082784706
H           -3.75317098344920       -4.47657667651014        1.71231294702582
H           -1.18969226639856       -2.83544677011056        1.51078680861891
H           -2.43807254303091       -2.83935276109101        2.75737071445315
H           -1.97391493297485       -1.32978801956290        1.96062630573663
H           -1.16188437591440       -2.65530873061604       -1.20150288370355
H            1.28969072928740       -2.74953807362239       -1.11498582121176
H           -1.05762109633459        1.29519141894743        0.41943626375119
H            4.00131148986529        1.70102344002826        2.23103937568243
H            4.42122708196638        1.01437889437635        4.53755445872161
H            2.62237036702433       -0.01593395361237        5.88312168785980
H            0.38391200158978       -0.33261296155984        4.88092953135193
H           -0.03660974763930        0.35531853911710        2.56761896880033
H            0.92135972734529        2.74304822584401       -1.44489029484421
H           -0.33937154357929        4.83735358148892       -1.70052217097417
H           -1.07112172670923        6.09174964724629        0.30059554642099
H           -0.51015291439956        5.23598444444471        2.54722113391110
H            0.74355507000412        3.14724905577676        2.79978973305020
H            3.20904284175017        3.69326159102377        0.21714761457430
H            5.42461052174863        3.73575952405364       -0.84934627366101
H            6.45450428202356        1.67538913007543       -1.65322272912484
H            2.27744033543018       -2.88257011976025        1.22450900054719
H            3.71692161816055       -4.83450374579034        1.66311490638172
H            5.96785587377929       -4.95089687330710        0.64356648005534
H            6.74739631793873       -3.16207108285079       -0.81484837041497
H            7.40200349188219       -0.67826482453396       -1.04555384153677
H            7.14357944319900       -1.80365598370590       -2.38940526002350
H            7.04547705565667       -0.08112633939461       -2.67467441482397
H            4.88190671518738       -2.10633342704271       -3.39683960590625
H            4.78815128766084       -0.36170316033562       -3.68378058230493
H            3.49755192831780       -1.18414850019530       -2.80562946797979
H           -5.35435307803839       -0.57789660571948        1.06868802057517
H           -3.90863880258624       -0.13772318848037        1.96860347314133
H           -5.35837430503714        0.86252513304700        2.08838353048840
H           -5.62774672301989        2.67987909619093        0.74942687323115
H           -5.89623475426306        4.47388632884014       -1.87616042763558
H           -5.50103221351808        4.90964752463367       -0.21341676246091
H           -4.35781723797434        5.25695761182344       -1.52078201141614
H           -3.14851240789124        3.37701615395676       -2.63461154515642
H           -0.84676514417889        1.38206451094667       -2.33169514798523
H           -1.82040381879799        0.00590524564954       -2.82168189035571
H           -2.02684387660731        1.56672134445910       -3.63042068500697
H           -5.44996280189435       -1.67972033424511       -3.05889235070934
H           -3.87453446473360       -0.89910617687060       -2.90041782784661
H           -5.26602219037729       -0.24794793715431       -2.04395682419020
H           -6.01806179647259       -3.42659844637221       -1.73007018637605
