102
 energy: -141.724974657671 gnorm: 0.000035794420 xtb: 6.7.1 (edcfbbe)
C           -5.89559246380638       -5.47247946850139        0.48997888579932
C           -5.12521323268879       -4.19931685182702        0.31973217441477
C           -4.03108673314544       -3.90891449601701        1.12749706337313
C           -3.29269359399490       -2.74820008902414        0.97727458802879
C           -2.16567238423862       -2.50262454642988        1.93958560023406
C           -3.65079819794461       -1.83103449915598       -0.03008305069425
N           -2.89790758788198       -0.66111672593463       -0.22378172251098
C           -1.52769495245507       -0.74345372839964       -0.28799034195524
C           -0.88276638672327       -1.90487350126143       -0.81208091600826
C            0.46918768746972       -1.95900399419167       -0.89710887916518
C            1.28117083065759       -0.86777819237922       -0.46458808761215
C            0.63941406636370        0.32347977775096        0.01332208675320
C           -0.71857046853211        0.35113197624815        0.11316068710090
C            1.48686706489196        1.48843042875801        0.47558040652411
C            1.74356040299930        1.41158746544653        1.97745760416134
C            2.16143431097755        2.53721313051125        2.68952445349483
C            2.45107940290428        2.45644769401996        4.03755453324302
C            2.34187676218313        1.24897398879237        4.70939343518890
C            1.93527615896450        0.12194215097273        4.01056013028773
C            1.64072891777498        0.20434055808225        2.66301615991882
C            0.75030471008061        2.74455040980264        0.04249141184990
C            0.85743234737249        3.17742014470749       -1.27625087656651
C            0.15463530648735        4.28070243423082       -1.72084362753531
C           -0.68209428344314        4.97079437918909       -0.85496344370367
C           -0.81482038332858        4.53453392593205        0.45163814700745
C           -0.11245456074704        3.42883751488972        0.89654287942680
C            2.87315824938135        1.43583324917539       -0.13251432204224
C            3.68233579021523        2.56399998469473       -0.16742308072785
C            4.96884219141969        2.49812850447508       -0.65895326064397
C            5.47207265098888        1.29809500417709       -1.15995935193219
C            4.69595563297462        0.15414998146483       -1.15118237632834
C            3.40729820614475        0.22198417046333       -0.60275949150865
N            2.64313100374257       -0.93907698330421       -0.52749666039143
C            3.33966900107646       -2.13364286215434       -0.35686769321125
C            2.81805871156660       -3.14581776258813        0.46349742216519
C            3.53427622275307       -4.30181919294942        0.67723033207156
C            4.78287649424546       -4.46242169682475        0.09453690209258
C            5.31576170875851       -3.44628353509548       -0.69445846900395
C            4.61489873609530       -2.27921029454089       -0.93034012408250
C            5.11020843526319       -1.14983019875572       -1.80831419205464
C            6.61397929879127       -1.22683098590441       -2.07438455272270
C            4.37696085484938       -1.24058763569706       -3.16604266378933
C           -3.51467717261007        0.59585858986632       -0.35299926037892
C           -4.48293118385473        1.01027971460589        0.58641639638795
C           -4.89389226777469        0.14541891149489        1.74133337201485
C           -5.04932807083438        2.26536064420492        0.45803585174951
C           -4.69693159891215        3.13632879299145       -0.56638737732578
C           -5.33144904528864        4.48947138733284       -0.66727280607944
C           -3.74829547886562        2.70821395365272       -1.48555129385869
C           -3.15221735186603        1.46159154181902       -1.40260638705238
C           -2.17325766348043        1.08127561193743       -2.47521654855833
C           -4.76236727953167       -2.10573873240930       -0.85519602131347
C           -5.18515499464136       -1.18301981329483       -1.95964315108044
C           -5.47093473786638       -3.27873170453922       -0.66048278999931
H           -6.94002057185036       -5.33305323447009        0.21904933630653
H           -5.48204243358001       -6.24927320884519       -0.15554503201787
H           -5.83963701739882       -5.82516155309971        1.51751038563467
H           -3.75543758909949       -4.60228038581336        1.90970172573994
H           -2.40828237525082       -2.93942465158702        2.90681438210316
H           -1.96346642160386       -1.44321773139655        2.07582232773034
H           -1.24967171574616       -2.97160731816353        1.58005156957822
H           -1.49246612431031       -2.71520657226501       -1.18362046887665
H            0.95612529402673       -2.81455491915728       -1.34139200281994
H           -1.21276403824955        1.21773723930853        0.52534115735864
H            2.25560967587099        3.48804147615686        2.18712022282911
H            2.76759874778657        3.34342996335791        4.56866658525486
H            2.57112697805319        1.18634447805623        5.76310709733754
H            1.84640433099002       -0.82763060672335        4.51937087439940
H            1.31990013565599       -0.68472810034297        2.14094310000818
H            1.50364349831753        2.64320054522028       -1.95960361327587
H            0.25600480198924        4.60228833529058       -2.74779085369335
H           -1.22868814342286        5.83643056938733       -1.19930626052454
H           -1.47427033407959        5.05491075561855        1.13190432782225
H           -0.23613668521347        3.09536298817245        1.91707912911300
H            3.29210980951328        3.50797575238812        0.18143482142976
H            5.58457519813089        3.38500370009437       -0.67985173405747
H            6.46812886273325        1.28642998333160       -1.56917218077879
H            1.86557871003890       -2.99649451562152        0.94834997812083
H            3.12647723526328       -5.07609111550250        1.31071379761578
H            5.34942949795451       -5.36625659217831        0.25946666762669
H            6.29548669553239       -3.58913530948113       -1.12001376292999
H            7.17679201346381       -1.16289156648525       -1.14564275304570
H            6.85913861378729       -2.15943993500542       -2.57573280030057
H            6.92096150258401       -0.41848520435942       -2.73259089222693
H            3.29875891455625       -1.19039243742339       -3.03401724338059
H            4.62111457940466       -2.18051049550568       -3.65693034404831
H            4.68271093516083       -0.41747114938381       -3.80863490336383
H           -5.54611604325590       -0.66425944563056        1.41428049306222
H           -4.02832555567813       -0.29901047305505        2.22675115057788
H           -5.43370609360529        0.73929076285264        2.47558573565666
H           -5.78548155202555        2.58230209087895        1.18400134939661
H           -4.95994908900788        5.02847631996027       -1.53509829744564
H           -6.41442787922704        4.39802384065113       -0.74985986961357
H           -5.11673526774868        5.07723960213996        0.22517944078216
H           -3.46689961266708        3.36142872209183       -2.29907093058037
H           -1.17692141216337        1.44387923745945       -2.22038250730734
H           -2.11043643333490        0.00525025113020       -2.61643110924030
H           -2.46594466985294        1.54203570140978       -3.41709396517072
H           -4.32866747781846       -0.83409771392373       -2.53114750472312
H           -5.70120542706972       -0.30776854007139       -1.56504616430105
H           -5.86358906968138       -1.70007586728772       -2.63474297905299
H           -6.31848624881736       -3.48616107269989       -1.29906108183089
