62
 energy: -101.952362480599 gnorm: 0.000136214922 xtb: 6.7.1 (edcfbbe)
O           -0.51730126349128        2.53651086325787        1.55998465514347
C           -0.93232540459545        1.37368043318784        1.29512840917651
C           -2.13941105553037        0.84051378154004        1.84143403341656
C           -2.46994053355243       -0.53594021245230        1.95070225663550
N           -3.58998546926571       -0.96095462691524        2.47162736884925
C           -4.45587880074414       -0.06536250626956        2.93526144154473
N           -4.20369194508031        1.24187579515985        2.97679452057537
C           -3.08883416183775        1.68748842955437        2.47632397636985
C           -0.12933440419456        0.52407525971256        0.38888446653300
C            1.25784596925966        0.57929837868124        0.48467616300571
C            2.07608074746320       -0.20988919392345       -0.31401916480544
N            3.46001301066384       -0.14279285137315       -0.18404637113932
C            4.20990616240512        1.01808242500028       -0.11933250982405
C            3.80123439859303        2.34264578055388       -0.20491966948993
C            4.77587808927384        3.32301765405638       -0.14270591006255
C            6.12387128488850        3.00050667854410       -0.01444284622242
C            6.53923561369820        1.68060435996701        0.04350956054532
C            5.57984467158367        0.68216501840661       -0.01207095941643
C            5.64924900031928       -0.75723255294733        0.00392854796792
C            6.69643383884598       -1.65828255227299        0.11464915201779
C            6.40535894439344       -3.01231443638521        0.12860601564351
C            5.09097736040113       -3.46390748998781        0.05339142143058
C            4.03029632857436       -2.58207289116558       -0.05700106397834
C            4.31862308782917       -1.22439908989198       -0.10389831414351
C            1.49356024293313       -1.07930081057142       -1.24615905857629
C            0.12201666915530       -1.11132600050759       -1.38403519087292
C           -0.70511309615514       -0.30632760517533       -0.60401064156002
N           -2.07680079673504       -0.30237379075879       -0.85718926922274
C           -2.85798527652498        0.81768962522487       -1.07298778018896
C           -2.47845943714165        2.14787362175026       -1.18396041438897
C           -3.47208829176817        3.08206397304709       -1.41734939142036
C           -4.80485488168683        2.70485895794285       -1.55235242601710
C           -5.18182625494413        1.37410336311666       -1.48149300662584
C           -4.20326383111985        0.42123607082562       -1.24850206256449
C           -4.22491644168354       -1.01547760587454       -1.13679042704684
C           -5.23521383707927       -1.96131438523408       -1.19473719178000
C           -4.90441610176317       -3.29491402095259       -1.01738116532934
C           -3.59046396731483       -3.68266028382708       -0.77363824840952
C           -2.56596810503311       -2.75546821156036       -0.70949108645743
C           -2.89004350013094       -1.41885944533062       -0.90339605407694
H           -1.76721155803309       -1.30231308657892        1.64456214431531
H           -5.39497555584261       -0.41713142241435        3.32908395927217
H           -2.88169830774438        2.74805222527901        2.54630363433914
H            1.68720330680883        1.21243054110893        1.24660430848413
H            2.76128498724084        2.60655828030912       -0.31957034894285
H            4.48130935686750        4.36026729797158       -0.19876729670052
H            6.85451399522611        3.79399458807024        0.03155499855232
H            7.58615532392010        1.43252198569024        0.12573913424607
H            7.71441055733525       -1.30961637162670        0.19446901598999
H            7.20724140151219       -3.73030668608919        0.21236057217259
H            4.89255570222084       -4.52456482036740        0.08799791425249
H            3.01391904278251       -2.94205511004696       -0.08802086994912
H            2.11965621209515       -1.66657624678988       -1.89815493311281
H           -0.32588221395444       -1.71846185060631       -2.15634178372974
H           -1.44760151144668        2.45074296706163       -1.08700189403326
H           -3.20405084414874        4.12497520189901       -1.49505012768952
H           -5.55281099771093        3.46358798618870       -1.72634744397248
H           -6.21330472226582        1.08318475200509       -1.60662896140046
H           -6.25738464701431       -1.66171367351298       -1.36657482084866
H           -5.67828437775376       -4.04627695627858       -1.05930352360247
H           -3.36522077601242       -4.72798339656839       -0.62625414335188
H           -1.55270866765135       -3.06359522635598       -0.50294646308130
