62
 energy: -102.019556975143 gnorm: 0.000031930243 xtb: 6.7.1 (edcfbbe)
O           -0.58497731842129        2.43984282892363        1.69158999020633
C           -0.93645940563199        1.35049319568250        1.27849537289372
C           -2.19131342176444        0.71810631520146        1.75807731599422
C           -2.28050577712474       -0.63191183165386        2.10159168571412
N           -3.39799187007912       -1.16627433889841        2.55892571051024
C           -4.43569367233551       -0.36192435722711        2.69776625003206
N           -4.46017336687357        0.93439015219451        2.43948105174744
C           -3.34950897814591        1.47009016672242        1.97110617245327
C           -0.11763964657369        0.54845806513920        0.33889715751943
C            1.26607122731940        0.60075662759855        0.47225901809937
C            2.08944943797931       -0.18486522636038       -0.32696421584496
N            3.47575025860002       -0.12576559441514       -0.18629284361155
C            4.23492559921950        1.03147947934518       -0.12032411063882
C            3.83875638099486        2.35825731204117       -0.20714539406626
C            4.81908563529267        3.33099291866610       -0.14070091090376
C            6.16507331133814        2.99980605270366       -0.00268759949321
C            6.56777943502494        1.68029456722762        0.05802175805467
C            5.60024012679192        0.68580148704053       -0.00510924199738
C            5.66132476448476       -0.75027120379928        0.01105713654333
C            6.70632488493791       -1.65778781177914        0.12803711869557
C            6.41273056213950       -3.00722035070135        0.13965580085117
C            5.09594978800810       -3.45327150002329        0.05443931813311
C            4.04010112253304       -2.56843599420505       -0.06400656931324
C            4.33111572761463       -1.21248738477174       -0.10518115123837
C            1.50768970787404       -1.02870018638045       -1.27640059165369
C            0.13733992053854       -1.06434672056402       -1.43475805928013
C           -0.69156860127104       -0.27390639612362       -0.64331716745295
N           -2.07284954408554       -0.26188168896639       -0.86479561460130
C           -2.84249500608223        0.86672815450716       -1.08813409149071
C           -2.44354867821689        2.18377937037123       -1.26242187958513
C           -3.42637605986224        3.12735628133697       -1.49567067408620
C           -4.77224574335805        2.77297233813168       -1.56305175236862
C           -5.17078602300489        1.45914851864517       -1.41604052738950
C           -4.20133837253690        0.49239077680856       -1.18173214179818
C           -4.24713083077197       -0.93306538156958       -1.00065662577793
C           -5.28179517391440       -1.85878909524472       -0.96190038748990
C           -4.97337276768499       -3.18583885831409       -0.73622215640135
C           -3.65575313858319       -3.59416388901465       -0.54270558263794
C           -2.60944028720226       -2.69201901453976       -0.57705289333274
C           -2.91349167537695       -1.36036313206096       -0.81614517136359
H           -1.42783193070723       -1.29570796784352        2.02859778676988
H           -5.35133801425440       -0.80479455651412        3.06675031075764
H           -3.37294981229034        2.52745903728618        1.74160304646468
H            1.68732978885076        1.23716068902349        1.23582790355878
H            2.80167438295987        2.63152183980731       -0.33006776503741
H            4.53319422526273        4.37101098472723       -0.19994666636931
H            6.90043363064472        3.78912594190329        0.04867973330533
H            7.61211126941462        1.42216257989479        0.14851743408637
H            7.72482025105662       -1.31044598179959        0.21400780155226
H            7.21089232337798       -3.72947389974206        0.22737746772602
H            4.89385857641147       -4.51387914130846        0.08532192956677
H            3.02349140116098       -2.92821527861353       -0.10803683771336
H            2.13936429362316       -1.62499907109623       -1.91616135291791
H           -0.30442960778480       -1.68607231428983       -2.19835119591923
H           -1.40223683472206        2.46748897364129       -1.22053607165470
H           -3.14235583449522        4.16064328401036       -1.62966402562455
H           -5.51031163232382        3.54033462636177       -1.74178198858736
H           -6.21204848793106        1.18385164397401       -1.48298403802613
H           -6.30397913366928       -1.54055049664162       -1.09904228295747
H           -5.76402277180870       -3.92023283020585       -0.70151487408046
H           -3.44711525113828       -4.63709170221056       -0.35731479573253
H           -1.59234097958507       -3.01427226857221       -0.41454765177729
