  62
       -101.98151253
 O         -0.6422224883        2.4621451587        1.5886331744
 C         -0.9627805150        1.3636233259        1.1859965986
 C         -2.1915483795        0.6798677987        1.6635536582
 C         -2.2076341571       -0.6664375912        2.0307370462
 N         -3.2986912154       -1.2612759277        2.4759200728
 C         -4.3876698304       -0.5206015050        2.5706286782
 N         -4.4869992881        0.7638101908        2.2762357346
 C         -3.4017750018        1.3596559131        1.8219680925
 C         -0.1218251649        0.5685931637        0.2521051894
 C          1.2570257261        0.6188131745        0.4050951720
 C          2.0884761216       -0.1794418081       -0.3739765198
 N          3.4706380655       -0.1244992390       -0.2079363971
 C          4.2262666923        1.0322196812       -0.1202962618
 C          3.8310965958        2.3576524324       -0.2245940404
 C          4.8079831336        3.3310022560       -0.1304547061
 C          6.1485986135        3.0014301613        0.0530364409
 C          6.5508369926        1.6830165242        0.1303009021
 C          5.5869897828        0.6876859210        0.0384378724
 C          5.6478029146       -0.7479275582        0.0570470373
 C          6.6882726348       -1.6550399838        0.2058766166
 C          6.3946100757       -3.0041095836        0.2073400455
 C          5.0816360305       -3.4502930948        0.0814643987
 C          4.0299264268       -2.5658164072       -0.0684989622
 C          4.3218078516       -1.2101250117       -0.1004507251
 C          1.5195871861       -1.0312298400       -1.3223945099
 C          0.1512460721       -1.0629249348       -1.5011728454
 C         -0.6833546798       -0.2604743832       -0.7303403706
 N         -2.0624141226       -0.2500297382       -0.9573011175
 C         -2.8305216535        0.8834422792       -1.1491097003
 C         -2.4246560203        2.1926173939       -1.3587820116
 C         -3.4081326699        3.1478687346       -1.5317165532
 C         -4.7601223745        2.8115468482       -1.5074107606
 C         -5.1665868949        1.5047998925       -1.3249597383
 C         -4.1968318586        0.5268637917       -1.1483347076
 C         -4.2480989738       -0.8928771549       -0.9319111498
 C         -5.2881412861       -1.8004768392       -0.7860324918
 C         -4.9805105319       -3.1229805407       -0.5350458294
 C         -3.6582378771       -3.5446298786       -0.4223547261
 C         -2.6060583699       -2.6601606918       -0.5626446863
 C         -2.9103067311       -1.3335171775       -0.8242371171
 H         -1.3135784183       -1.2760339924        1.9853919316
 H         -5.2816432517       -1.0113876745        2.9305997426
 H         -3.4893383412        2.4044968364        1.5567444984
 H          1.6733976040        1.2597603170        1.1662664769
 H          2.7984536499        2.6272718201       -0.3835958410
 H          4.5234565543        4.3700249846       -0.2030655969
 H          6.8805880029        3.7913463661        0.1267322495
 H          7.5914974685        1.4257904453        0.2556146680
 H          7.7030783183       -1.3070586142        0.3235162588
 H          7.1889933988       -3.7264568220        0.3183678845
 H          4.8786254861       -4.5105450286        0.1051341732
 H          3.0144284789       -2.9249335016       -0.1422841054
 H          2.1596570231       -1.6380858868       -1.9436019650
 H         -0.2827017572       -1.6936462932       -2.2621749760
 H         -1.3792279632        2.4598657208       -1.3843459712
 H         -3.1210934696        4.1767157763       -1.6890044446
 H         -5.4976596981        3.5882084745       -1.6408826957
 H         -6.2135162887        1.2442056093       -1.3180299767
 H         -6.3133410650       -1.4715020971       -0.8600277032
 H         -5.7749291998       -3.8438168039       -0.4159448507
 H         -3.4500931483       -4.5831587486       -0.2145498288
 H         -1.5832337171       -2.9899300373       -0.4585508249
