  62
        -97.54576838
 C         -8.1318638544       -2.9172322277        0.0770103048
 C         -6.9386751642       -3.0392443533        0.7707331614
 C         -6.0108311124       -2.0166406116        0.7529585096
 C         -6.2639707593       -0.8508403655        0.0288925207
 N         -5.3253391276        0.1846638668        0.0041633553
 C         -5.7478683856        1.5175257312       -0.0090343250
 C         -6.8704771047        1.9124519362        0.7194517955
 C         -7.2826008831        3.2304116199        0.7006993567
 C         -6.5838220086        4.1744994670       -0.0342621263
 C         -5.4659722424        3.7882673224       -0.7561209319
 C         -5.0491884305        2.4717962713       -0.7495846408
 C         -3.9587906500       -0.1116234425       -0.0087916139
 C         -3.0528804338        0.6801794890        0.6992758623
 C         -1.7070198641        0.3891984343        0.6798137523
 C         -1.2123047905       -0.7051076537       -0.0349147117
 C          0.2158243421       -1.0150110951       -0.0440553557
 C          0.6622512468       -2.3414588444       -0.0673383255
 C          2.0041866252       -2.6460873261       -0.0604621558
 C          2.9793341851       -1.6426003969       -0.0404515375
 N          4.2787573450       -1.9044063723       -0.0355736992
 C          5.1724981254       -0.9430183960       -0.0158332657
 C          4.7202960573        0.4434129398       -0.0016275067
 N          3.4485333236        0.7140515683       -0.0056502446
 C          2.5286680503       -0.2602479729       -0.0215285633
 C          1.1672411384        0.0059142634       -0.0205430709
 C          5.8886999981        1.2868312762        0.0178623518
 C          6.1117130606        2.6492410180        0.0374249216
 C          7.4396353614        3.0977584567        0.0559764490
 C          8.5222872736        2.2433205511        0.0553396846
 C          8.3284935976        0.8436685855        0.0349513247
 C          9.3073565895       -0.1775653049        0.0311266235
 C          8.9256430300       -1.5030836572        0.0103021791
 C          7.5877447181       -1.9173593395       -0.0077990060
 C          6.6028736192       -0.9448833959       -0.0042747229
 C          7.0016274287        0.4158312835        0.0166234422
 C         -2.1273853419       -1.4938882097       -0.7371638720
 C         -3.4737404857       -1.2035846816       -0.7306390040
 C         -7.4653807960       -0.7349013446       -0.6714968711
 C         -8.3893850639       -1.7607237990       -0.6413307528
 H         -8.8557865690       -3.7174720953        0.0960518325
 H         -6.7326128967       -3.9342950656        1.3389053892
 H         -5.0868726332       -2.1084575794        1.3047818260
 H         -7.4096969527        1.1804514029        1.3027349966
 H         -8.1512553920        3.5240210217        1.2713402489
 H         -6.9082098722        5.2037851680       -0.0445478684
 H         -4.9187108623        4.5163222271       -1.3364305984
 H         -4.1844524639        2.1701224273       -1.3221380200
 H         -3.4185064808        1.5187918514        1.2738980690
 H         -1.0276951132        0.9992863046        1.2558134977
 H         -0.0588118011       -3.1448037674       -0.0606463255
 H          2.3407395508       -3.6713370496       -0.0645292178
 H          0.8621067913        1.0408065725       -0.0294712970
 H          5.2951634468        3.3548544104        0.0393156891
 H          7.6168756922        4.1640876748        0.0716098728
 H          9.5262524985        2.6424194169        0.0698917576
 H         10.3547842001        0.0858243508        0.0446270132
 H          9.6930082827       -2.2647837436        0.0073667695
 H          7.3401868845       -2.9675080458       -0.0240719662
 H         -1.7723055834       -2.3275329639       -1.3243888645
 H         -4.1634978133       -1.8149264012       -1.2943545846
 H         -7.6630397569        0.1605216637       -1.2423752831
 H         -9.3141029330       -1.6596007469       -1.1900379541
