  34
  -49.9883592100000        1.00000000000000      !
 C         -4.8380555013        1.3765862584       -0.0054426404
 C         -5.0296503206        0.0031188580       -0.0029286331
 C         -3.9497919344       -0.8641813969        0.0005466308
 C         -2.6704822229       -0.3318833548        0.0018628453
 C         -2.4787406758        1.0579712876        0.0004913859
 C         -3.5585517507        1.9151134997       -0.0034837093
 C         -1.0124296017        1.3805593799        0.0037081079
 C         -0.3794973091        0.0203034462        0.0039362116
 C         -1.3681858821       -0.9783422896        0.0031432878
 C         -1.0379996757       -2.3256592547        0.0015638959
 C          0.2991551118       -2.6977971665        0.0001918777
 C          1.2763500046       -1.7224504177        0.0005217881
 C          0.9510508196       -0.3524441081        0.0028820609
 C          2.1864889211        0.4151223590        0.0020299137
 C          2.4164942847        1.7821316883        0.0049495673
 C          3.7250939229        2.2369315620        0.0019521327
 C          4.7882986340        1.3472874630       -0.0038024406
 C          4.5648659006       -0.0226327381       -0.0057450486
 C          3.2655034090       -0.4831957584       -0.0025431705
 C          2.7670272423       -1.8984231939       -0.0026792505
 H         -5.6946124019        2.0348372095       -0.0084930337
 H         -6.0346028565       -0.3937259118       -0.0039116965
 H         -4.1037571370       -1.9331386385        0.0020527119
 H         -3.4153498234        2.9863915771       -0.0040659571
 H         -0.7256294123        1.9601671796       -0.8775845324
 H         -0.7302223630        1.9581170922        0.8879123312
 H         -1.8126633294       -3.0776289799        0.0010992846
 H          0.5726134304       -3.7433108782       -0.0018157888
 H          1.5972089837        2.4840700007        0.0092597490
 H          3.9208204410        3.2995617845        0.0043291172
 H          5.8004742867        1.7245032622       -0.0062060127
 H          5.3959794316       -0.7134038741       -0.0095463582
 H          3.1079779272       -2.4477303311       -0.8840224931
 H          3.1114749374       -2.4480051824        0.8772317988
