32
 energy: -48.986713422308 gnorm: 0.000016875502 xtb: 6.7.1 (edcfbbe)
C            2.85938230627597        2.40437171822112       -0.12257128165563
C            3.54329652026373        1.22193787141313       -0.06167652723346
C            2.84466934586055       -0.00018140725933        0.00050201146082
C            3.54316133695402       -1.22236849393004        0.06290849976377
C            2.85910911928889       -2.40476190949229        0.12302998843668
C            1.46435081848129       -2.41187386067562        0.10045054746564
C            0.72897667146974       -1.24076085887432        0.02636667708380
C           -0.72914289183631       -1.24067110314353       -0.02634002638093
C           -1.46466504128328       -2.41169996410900       -0.10028134590467
C           -2.85942804472841       -2.40443623585527       -0.12249907140912
C           -3.54332978944461       -1.22196000755103       -0.06227882418703
C           -2.84468172143086        0.00014916749253       -0.00015163867591
C           -3.54315328297335        1.22235464730418        0.06213085619186
C           -2.85908960247711        2.40471063062027        0.12284539641962
C           -1.46432397419300        2.41178001979770        0.10069927015089
C           -0.72898607170533        1.24066625694829        0.02626959335878
C            0.72912798090350        1.24057482038769       -0.02632137681773
C            1.46461331656876        2.41159909661938       -0.10070141290675
C            1.42294890122363       -0.00012930236299        0.00021810357784
C           -1.42296102628490        0.00004709826656       -0.00012986807272
H            3.39158835610819        3.34302286436389       -0.18171467054119
H            4.62373754392408        1.20468939937190       -0.06454789883076
H            4.62360126277851       -1.20520813568616        0.06641836681525
H            3.39120665440632       -3.34348033045075        0.18209470316028
H            0.96835312628122       -3.36799297700389        0.14611229194333
H           -0.96878482353050       -3.36787659680489       -0.14602215842286
H           -3.39164879190005       -3.34309474030637       -0.18138454538677
H           -4.62376894853585       -1.20467063637362       -0.06552095125359
H           -4.62359618408739        1.20523578491882        0.06525548441263
H           -3.39117037460229        3.34342623717847        0.18208949006540
H           -0.96827202555950        3.36784098924713        0.14701763452775
H            0.96868307121752        3.36771910544721       -0.14711554555347
