32
 energy: -48.924276151772 gnorm: 0.000022960491 xtb: 6.7.1 (edcfbbe)
C            2.84313337753349        2.42431972205881        0.01178479389093
C            3.53413732744352        1.22073071539175        0.00381260928036
C            2.83742534101497       -0.00007814536644       -0.00138432787407
C            3.53403777995852       -1.22093337011647       -0.00871969402940
C            2.84293349163802       -2.42448064740828       -0.01413695763804
C            1.47050542861218       -2.43957850030835       -0.01029186313230
C            0.71219318477911       -1.23578492972211       -0.00142283360986
C           -0.71228589820152       -1.23573184196469        0.00426970174065
C           -1.47069736743368       -2.43946174308016        0.01324539660649
C           -2.84313014524901       -2.42427997107611        0.01238816073571
C           -3.53413637787877       -1.22070142355557        0.00298681931046
C           -2.83742766760630        0.00011001757855       -0.00225775082613
C           -3.53404487368583        1.22095956146570       -0.01007517764951
C           -2.84294600443159        2.42451209479292       -0.01474831934970
C           -1.47052012094933        2.43961712114068       -0.01031881748439
C           -0.71219842471711        1.23582734422678       -0.00175791906903
C            0.71228365545649        1.23577550918167        0.00388564978439
C            1.47070185713996        2.43950876860607        0.01188976587610
C            1.41148705083411       -0.00002939373420        0.00049060839882
C           -1.41149090816253        0.00007031038140        0.00021316718350
H            3.39084922440485        3.35605120305623        0.01774806276339
H            4.61402354085191        1.20893952963618        0.00263695612250
H            4.61392309090030       -1.20920932931869       -0.01114245292766
H            3.39057033217118       -3.35624953735802       -0.02142596297332
H            0.96722981604639       -3.39166890228632       -0.01592599326447
H           -0.96750338469877       -3.39157095816565        0.02221788800233
H           -3.39084468414440       -3.35600822928974        0.01898546103663
H           -4.61402233691573       -1.20891440656496        0.00101398105620
H           -4.61392847552388        1.20922644608110       -0.01315851137964
H           -3.39058272130646        3.35628264499705       -0.02184391444613
H           -0.96725795451946        3.39171890583995       -0.01506405039509
H            0.96751422801438        3.39163188120574        0.01932864675163
