32
 energy: -48.924269278640 gnorm: 0.000042217975 xtb: 6.7.1 (edcfbbe)
C            2.84152903935758        2.42246032481826       -0.09846750679385
C            3.53310208710077        1.22004077987523       -0.04854690839259
C            2.83702322960883       -0.00021683388799        0.00030742833565
C            3.53294237811578       -1.22056322271032        0.04921771842944
C            2.84121099358185       -2.42289644604674        0.09901647692576
C            1.46880845286539       -2.43829914729644        0.08334165240774
C            0.71180360300694       -1.23545479833756        0.02082509195145
C           -0.71197786650534       -1.23536247730099       -0.02040597564104
C           -1.46913980425885       -2.43811042768123       -0.08287341496469
C           -2.84153989770411       -2.42252743572213       -0.09858744890120
C           -3.53311412649083       -1.22010030756690       -0.04887494357452
C           -2.83703545866322        0.00015670166198       -0.00000327610859
C           -3.53295474692040        1.22050839941214        0.04877248810031
C           -2.84122471242617        2.42283858239931        0.09866945238739
C           -1.46882038156160        2.43823286168264        0.08316819131355
C           -0.71181686779386        1.23538478592616        0.02071146380079
C            0.71196654637229        1.23529048753007       -0.02040660595966
C            1.46912725330734        2.43803645756688       -0.08292490897697
C            1.41123660158972       -0.00012746695105        0.00024415800123
C           -1.41124884840093        0.00005764751943        0.00010387552675
H            3.38899440213110        3.35300228056138       -0.14880161867004
H            4.61298121583821        1.20860865431312       -0.05414004714897
H            4.61282231159727       -1.20926855494766        0.05492777414351
H            3.38855353063942       -3.35351063152005        0.14934982220200
H            0.96381121564350       -3.38845910375763        0.13025398836283
H           -0.96426679949453       -3.38833965586002       -0.12971980228349
H           -3.38900357929314       -3.35307233293823       -0.14888525059780
H           -4.61299238008351       -1.20866332025053       -0.05462091073130
H           -4.61283557679795        1.20921911180741        0.05432728406007
H           -3.38856909306278        3.35345452228221        0.14895080515836
H           -0.96381883955498        3.38838558515495        0.13018662549315
H            0.96424986822266        3.38825413800252       -0.12996390375181
