  32
        -48.90560151
 C          2.8420225810        2.4236271939        0.0121532483
 C          3.5328276635        1.2204209199       -0.0049746089
 C          2.8363312074        0.0000037444       -0.0067189552
 C          3.5329595500       -1.2202738948       -0.0167094862
 C          2.8422450196       -2.4236519779       -0.0129732946
 C          1.4702127684       -2.4389447961       -0.0021154431
 C          0.7119713614       -1.2355373301        0.0038849674
 C         -0.7120126618       -1.2355222415        0.0086446100
 C         -1.4703622292       -2.4387957683        0.0153445449
 C         -2.8424984790       -2.4234568946        0.0098637106
 C         -3.5331114902       -1.2201352122       -0.0019808786
 C         -2.8363048425        0.0001135713       -0.0043470792
 C         -3.5327751627        1.2205223167       -0.0139458772
 C         -2.8418451113        2.4237455833       -0.0150434496
 C         -1.4697472001        2.4387872025       -0.0062438206
 C         -0.7118804841        1.2352974855        0.0031016036
 C          0.7119911558        1.2352460643        0.0091512196
 C          1.4699830340        2.4386803412        0.0202769376
 C          1.4109859257       -0.0001284837        0.0023309426
 C         -1.4109863284       -0.0000528335        0.0027540768
 H          3.3896357046        3.3550162473        0.0179984887
 H          4.6123549374        1.2085888257       -0.0151927881
 H          4.6125241299       -1.2082329601       -0.0255355958
 H          3.3898940663       -3.3550304536       -0.0181538979
 H          0.9673152323       -3.3910315449        0.0011205708
 H         -0.9676713975       -3.3909876506        0.0261186048
 H         -3.3901480749       -3.3548431125        0.0144896586
 H         -4.6126809354       -1.2079507641       -0.0082129179
 H         -4.6123564369        1.2085441292       -0.0221376368
 H         -3.3892376160        3.3552162511       -0.0266035808
 H         -0.9665225570        3.3908032796       -0.0093874775
 H          0.9668181414        3.3905632553        0.0362667270
