69
 energy: -106.004526710022 gnorm: 0.000051241556 xtb: 6.7.1 (edcfbbe)
C           -8.84972203000418        1.90730172121422       -0.29601947473212
C           -8.97715568040769        0.84603999470035        0.58541709755380
C           -7.97804036220426       -0.10562869856112        0.67726559645999
C           -6.83184609870457       -0.00680883963084       -0.10893089720258
C           -5.76797692465634       -1.01953230746296       -0.01523088706536
C           -6.07851729704886       -2.37721314395297        0.06885975807700
C           -5.07437149014462       -3.32680476984229        0.15190758760147
C           -3.74703235509631       -2.94286353871767        0.15413519204735
C           -3.42005173607088       -1.58972947140519        0.07539624296427
C           -2.01621763636925       -1.16681599008192        0.07565026575490
N           -1.08866773629587       -2.10054752662289       -0.01823594008840
C            0.22196269341408       -1.69433020532461       -0.02524525671855
C            1.27495426158133       -2.65990960261707       -0.12240682205169
C            0.99992252047850       -4.03160409727394       -0.24495684361241
C            2.03761811915919       -4.93472883553838       -0.33816082095978
C            3.35610263122508       -4.50676230596353       -0.30784304197938
C            3.65443717668909       -3.14404587191543       -0.18479571399935
C            5.04649259572458       -2.67312661170810       -0.13967644943691
C            6.02156973550485       -3.39112277794234        0.55300348169451
C            7.32687181875637       -2.93887494288884        0.60265938440042
C            7.68366691205274       -1.76430374671777       -0.04101576541803
C            6.72415583551238       -1.04271038822755       -0.73392315560017
C            5.41776649900612       -1.49120298026234       -0.78203108117780
C            2.61095322845317       -2.23707355107640       -0.09610852685910
N            0.50549426690562       -0.40630816619891        0.05069379596757
C           -0.44135003123020        0.50942627393611        0.14193637419053
C           -0.09635709454058        1.89731279406850        0.22721247836059
C           -1.07902614238974        2.88476400296503        0.40285308774194
C           -0.71166359410693        4.21101573714575        0.49021554337804
C            0.62030005471052        4.58604155582633        0.40287947755414
C            1.61701966520619        3.61909653249501        0.22234746917500
C            3.03301311124750        3.99949525027261        0.11464829355856
C            3.41344851234047        5.15171577540634       -0.57378692999267
C            4.74670845176464        5.50081421509257       -0.68049513447643
C            5.72458981189517        4.70770373858002       -0.10087896920148
C            5.35934724074855        3.56072515136923        0.58649604202440
C            4.02711342073266        3.20861866291015        0.69251176718819
C            1.24700359441886        2.28643604511026        0.13939146984938
N           -1.75805756020089        0.12489231329879        0.16383264559412
C           -4.43168538870690       -0.63788113444928       -0.01024010426241
C           -6.71109668761433        1.06733833731077       -0.98844401850724
C           -7.71479947617958        2.01378786164633       -1.08357066193854
H           -9.63178019512583        2.64872591100197       -0.36914897062965
H           -9.85845632600120        0.76061031763683        1.20456807991957
H           -8.07498084290861       -0.92266823591471        1.37730013296845
H           -7.11239377909893       -2.68820948300911        0.04874686370904
H           -5.32930749541360       -4.37473391894410        0.21010424977685
H           -2.95363627499104       -3.67119287237842        0.21890581580300
H           -0.02920866790413       -4.35531887679758       -0.26813936340511
H            1.82159955004161       -5.98866057254813       -0.43938109724336
H            4.15696665814336       -5.22391011959209       -0.40325400080471
H            5.74660143348465       -4.29674964964920        1.07356026658343
H            8.06975939396030       -3.50308223623680        1.14779850973225
H            8.70432580112607       -1.41299637525035       -0.00228375127715
H            6.99538443971795       -0.12766095769773       -1.24065220850496
H            4.67918661101052       -0.93322184375343       -1.33915410275507
H            2.80880798215462       -1.18260138934589        0.02334180301494
H           -2.11288745384484        2.58349809083532        0.47323812584391
H           -1.47005432598549        4.96724698856425        0.63378780789422
H            0.89352133202670        5.62593688420176        0.49658225903064
H            2.65881088837495        5.76355888050948       -1.04580886886193
H            5.02569938474770        6.39383822356494       -1.22098874864642
H            6.76594217471833        4.98199647983549       -0.18461142530799
H            6.11570321084276        2.93891204183418        1.04353657950218
H            3.74924951402858        2.32367589233731        1.24646389125530
H            1.98945518884035        1.51984349762612       -0.02299400461310
H           -4.15897665120036        0.40540158566164       -0.05740225292802
H           -5.83409893189120        1.14599541437421       -1.61481151499044
H           -7.61184915187275        2.83710669687644       -1.77568546052865
