  69
       -105.95552406
 C         -8.8315727760        1.9107499118       -0.3974530450
 C         -8.9893444067        0.8539290740        0.4835747045
 C         -7.9951119018       -0.0980455148        0.6130861580
 C         -6.8233255506       -0.0041081607       -0.1338447189
 C         -5.7642133998       -1.0167291063       -0.0037708471
 C         -6.0802326944       -2.3728408779        0.0854033766
 C         -5.0796763778       -3.3241925599        0.1930129708
 C         -3.7523692335       -2.9447586647        0.2133747177
 C         -3.4205386160       -1.5920957299        0.1309547091
 C         -2.0220564111       -1.1731629098        0.1424855011
 N         -1.0854707925       -2.1029752865        0.0803106618
 C          0.2189651154       -1.7022039858        0.0631183462
 C          1.2738408535       -2.6660954071       -0.0287509907
 C          1.0012269110       -4.0393964446       -0.1180822995
 C          2.0408508429       -4.9382266500       -0.2202806571
 C          3.3572274564       -4.5024655920       -0.2347678264
 C          3.6508628109       -3.1376945226       -0.1439472544
 C          5.0409998224       -2.6588332100       -0.1571014964
 C          6.0455807621       -3.3589737858        0.5081795587
 C          7.3494107273       -2.9000091678        0.4979897146
 C          7.6735927873       -1.7349009902       -0.1774542697
 C          6.6837023412       -1.0306114292       -0.8431204714
 C          5.3794868968       -1.4872631055       -0.8329845948
 C          2.6066959290       -2.2346882638       -0.0407300474
 N          0.5016868851       -0.4110298924        0.1152764373
 C         -0.4465757012        0.5065141432        0.1875117500
 C         -0.1004193358        1.8954425764        0.2535984413
 C         -1.0830656459        2.8844543672        0.4068558799
 C         -0.7138074084        4.2104188155        0.4774919149
 C          0.6194968205        4.5813848550        0.3912801953
 C          1.6142690345        3.6110011885        0.2318947707
 C          3.0314861062        3.9873371232        0.1228851989
 C          3.4160150375        5.1196743611       -0.5925536222
 C          4.7505193041        5.4617361418       -0.7061620376
 C          5.7242799131        4.6804307721       -0.1061715233
 C          5.3541240458        3.5535328755        0.6093574657
 C          4.0205177339        3.2091414877        0.7227756897
 C          1.2441224684        2.2785485050        0.1679641835
 N         -1.7551301911        0.1208214333        0.2029079720
 C         -4.4288538895       -0.6374920432        0.0238700446
 C         -6.6726533712        1.0655384712       -1.0135889139
 C         -7.6707577664        2.0127367917       -1.1460049987
 H         -9.6101748804        2.6520240746       -0.5002909987
 H         -9.8909078602        0.7722879320        1.0731196141
 H         -8.1165919359       -0.9110867234        1.3140157998
 H         -7.1145106409       -2.6815963431        0.0477785306
 H         -5.3404257944       -4.3705403003        0.2556902605
 H         -2.9624437665       -3.6748747196        0.2947682108
 H         -0.0262287680       -4.3682973159       -0.1091430060
 H          1.8300571387       -5.9954032734       -0.2956422919
 H          4.1597988899       -5.2166400407       -0.3404174005
 H          5.7970326720       -4.2572545923        1.0540386569
 H          8.1167346418       -3.4514719187        1.0217548777
 H          8.6928557582       -1.3780536130       -0.1856539245
 H          6.9297147147       -0.1225381494       -1.3743526887
 H          4.6169354907       -0.9425762568       -1.3698499786
 H          2.8026343762       -1.1774513420        0.0544229014
 H         -2.1176669305        2.5861312588        0.4743448998
 H         -1.4703911099        4.9712759167        0.6049362561
 H          0.8948557444        5.6222559211        0.4691150626
 H          2.6640438191        5.7223181270       -1.0804145419
 H          5.0335899691        6.3398112983       -1.2684343757
 H          6.7666294179        4.9483632733       -0.1962968550
 H          6.1082215274        2.9404996077        1.0815869856
 H          3.7388794246        2.3390988057        1.2972735557
 H          1.9871217639        1.5088944417        0.0246287876
 H         -4.1529802945        0.4048689692       -0.0253282851
 H         -5.7760032927        1.1405209318       -1.6112349878
 H         -7.5443330525        2.8328040815       -1.8378393867
