69
 energy: -106.093175149727 gnorm: 0.000064702929 xtb: 6.7.1 (edcfbbe)
C            3.54286985343071       -7.75142896165556       -0.01140901608635
C            3.58692160460254       -6.63149252407544       -0.82561783855526
C            2.53467255758814       -5.73409130975157       -0.83145052471372
C            1.41730953066723       -5.94783662806878       -0.02726534084595
C            0.29645955918495       -4.99329143389482       -0.03625191857623
C           -1.02445848670199       -5.44159927351694       -0.04147564891516
C           -2.07643467985084       -4.54146169187390       -0.05454297502793
C           -1.83155536790042       -3.18147258261248       -0.05690738445264
C           -0.51744924052951       -2.71562969412679       -0.04798520324487
C           -0.24241563164143       -1.27844986062475       -0.04315897588147
N           -1.27894207826208       -0.44467247132912       -0.04159633985762
C           -0.98363020176243        0.85279666540955       -0.03680119332452
C           -2.09167373076374        1.80849319705002       -0.03937905871670
C           -1.83999396489828        3.17964081415024       -0.06011123113607
C           -2.89695145628084        4.06983851808740       -0.06363290987652
C           -4.20171788320566        3.60680309629039       -0.04913707793445
C           -4.47211193080906        2.23838007489058       -0.02760933168334
C           -5.85824813899485        1.74281130859520       -0.00994222574024
C           -6.21667140577156        0.67218713770234        0.80643187005707
C           -7.51922863060693        0.20802706387192        0.82590782044321
C           -8.48214292571205        0.80079665241069        0.02556498669770
C           -8.13534952182126        1.86313218378674       -0.79293149956232
C           -6.83490046507585        2.33359924669053       -0.80866479851946
C           -3.40503596168544        1.34810352597887       -0.02189432116076
N            0.25664107736611        1.33369492640721       -0.02633159653471
C            1.23259218986244        0.42897239973790       -0.02712941767901
C            2.61448665227829        0.90995776856125       -0.00980503763273
C            3.67576797978559        0.00581527451936       -0.02038416047186
C            4.97539978696077        0.47501355321797       -0.00201493681327
C            5.22767671406078        1.83609117128047        0.02671956562466
C            4.17826809246168        2.75519805997557        0.04046697903887
C            4.44244752361936        4.20297876808181        0.07938236639726
C            5.45906750583124        4.76292413753040       -0.69126328248154
C            5.70197087129822        6.12395067502927       -0.65295856037726
C            4.93817910770289        6.94567389421891        0.15950109237766
C            3.92643159694242        6.39873110410100        0.93172583278807
C            3.67778113120050        5.03900890882954        0.89034943042768
C            2.87344947522093        2.27709286315189        0.02149033218324
N            1.02900240651388       -0.88564797427037       -0.03917898483997
C            0.53660382869805       -3.62454727867246       -0.04046476076014
C            1.38143903652816       -7.07881123712143        0.78523514055071
C            2.43831248206783       -7.97086001055125        0.79521579166019
H            4.36630992729181       -8.45043807705104       -0.00546983310804
H            4.44457893070218       -6.45691806393281       -1.45930699686558
H            2.56667273364320       -4.86875719627971       -1.47786513916024
H           -1.22540578915768       -6.50266255292012       -0.05447457369645
H           -3.09373776006053       -4.90408747571854       -0.06514669096762
H           -2.63977210508437       -2.46734463232312       -0.06675599534090
H           -0.81790301029479        3.52376147856028       -0.07416171516559
H           -2.70420030749833        5.13250031539344       -0.07571878426253
H           -5.02075333920548        4.31062906351706       -0.03560148723306
H           -5.47195020463197        0.21634973388034        1.44300827779988
H           -7.78475843874485       -0.61837908284310        1.46940364731701
H           -9.49870422626595        0.43591639216412        0.03961019363413
H           -8.88116736801798        2.32614155610366       -1.42288191325401
H           -6.56631268375552        3.15149806447766       -1.46133923664131
H           -3.57792981005605        0.28317476433234       -0.02207695294645
H            3.46240127468391       -1.05120637796015       -0.04097169363294
H            5.79881336081578       -0.22391745437702       -0.00603432448526
H            6.24677594867290        2.19212068199104        0.05880155196237
H            6.04713349775665        4.12977471267225       -1.33965230250724
H            6.48963338346970        6.54568524288138       -1.26057548822668
H            5.13033108604712        8.00813422149968        0.19074418977278
H            3.32927248578059        7.03417107029522        1.56984448734802
H            2.89734711583806        4.61464316256887        1.50555961307276
H            2.03828194359077        2.96001214739377        0.01405130844926
H            1.54594883471738       -3.24400389857484       -0.01873885631781
H            0.52919989754074       -7.24639433572002        1.42770743554106
H            2.40069233010054       -8.84039558806102        1.43548995736592
