  107
       -165.70202281
 O         -8.1646543966       -2.6120641305       -1.7534455103
 P         -7.6761549316       -1.6531384559       -0.7545469096
 C         -5.8934026419       -1.8371471142       -0.4116479129
 C         -5.3684750521       -2.1579518187        0.8296512445
 C         -3.9975063507       -2.2706722864        0.9839231904
 C         -3.1541690906       -2.0671293944       -0.0954049447
 C         -3.6803033096       -1.7654365678       -1.3407489708
 C         -5.0489920793       -1.6535002697       -1.4984048383
 C         -8.5690832940       -1.7532299807        0.8273676374
 C         -8.3670741322       -0.8693295517        1.8803138744
 C         -9.1033020743       -1.0125241693        3.0422064063
 C        -10.0395675246       -2.0287836885        3.1558153485
 C        -10.2433326767       -2.9073130434        2.1045998160
 C         -9.5089781204       -2.7681331705        0.9403794357
 C         -7.8614433308        0.0681176964       -1.3374747897
 C         -8.7725819912        0.3036135558       -2.3557126880
 C         -8.9315421654        1.5759567990       -2.8737204708
 C         -8.1717802200        2.6209599301       -2.3721455253
 C         -7.2570458610        2.3998345869       -1.3575747206
 C         -7.1016003459        1.1221120316       -0.8356893500
 O         -6.2682861452        0.8615186948        0.2235681206
 C         -4.9329488335        1.1515694114        0.1460187790
 C         -4.2756748176        1.4780076347       -1.0330005742
 C         -2.9091810328        1.6776368077       -1.0224398504
 C         -2.1694828314        1.5396254884        0.1477366412
 C         -0.7132323161        1.7315495313        0.1467791327
 C         -0.1298556492        2.7838401442       -0.5529265591
 C          1.2386558376        2.9734229237       -0.5377963209
 C          2.0664659232        2.1043081472        0.1605786882
 C          3.5597863842        2.3439743522        0.2471832324
 C          4.3608416082        1.0599283819        0.1999933381
 C          3.9765255601        0.0267864453       -0.6479011643
 C          4.7379549077       -1.1197242764       -0.7576011141
 C          5.9043968698       -1.2580283670       -0.0114159064
 N          6.6768093938       -2.4227372304       -0.1140564152
 C          8.0369501396       -2.4725963647       -0.3458464262
 C          8.9335031602       -1.4384264323       -0.5739009112
 C         10.2542731624       -1.7700209219       -0.8075526747
 C         10.6802506604       -3.0964309886       -0.8234386457
 C          9.7883938197       -4.1305825556       -0.6217122135
 C          8.4550030756       -3.8227488723       -0.3858663155
 C          7.2818705598       -4.6199755770       -0.1619106075
 C          7.0583077898       -5.9877375364       -0.0749627685
 C          5.7764967617       -6.4339320031        0.1766636825
 C          4.7275108467       -5.5349547003        0.3560229993
 C          4.9247705705       -4.1700132022        0.2737391351
 C          6.2064347349       -3.7159926259       -0.0031455695
 C          6.2957608588       -0.2262709122        0.8357860823
 C          5.5350812559        0.9231162832        0.9294347688
 C          3.8170919484        3.1764400083        1.4897145013
 C          3.5286149766        2.8749177585        2.8034092404
 C          3.8379414910        3.8075716725        3.7842605210
 C          4.4201867454        5.0213691923        3.4525830930
 C          4.7076333916        5.3322097739        2.1334797395
 C          4.4026641054        4.4044107716        1.1513324954
 C          4.5862910647        4.4488725000       -0.2901207579
 C          5.1356866896        5.4248414924       -1.1050327007
 C          5.1894053115        5.1965047789       -2.4704494117
 C          4.7064823176        4.0147446578       -3.0115470316
 C          4.1557766434        3.0327802435       -2.1990168912
 C          4.0930142739        3.2576914508       -0.8405288658
 C          1.4874865227        1.0491262990        0.8577290725
 C          0.1192360280        0.8667944774        0.8533382012
 C         -2.8428517446        1.2106463004        1.3223979377
 C         -4.2081178539        1.0254729612        1.3273951264
 H         -6.0296491225       -2.3121665810        1.6706533525
 H         -3.5852932015       -2.5160461947        1.9520735510
 H         -2.0845801213       -2.1466473432        0.0313691002
 H         -3.0225435492       -1.6135442887       -2.1838863256
 H         -5.4829073032       -1.4243049724       -2.4633569173
 H         -7.6392031122       -0.0789200517        1.7857986815
 H         -8.9490289901       -0.3280215425        3.8640492003
 H        -10.6122373417       -2.1332747729        4.0659608862
 H        -10.9745063567       -3.6974654581        2.1925721869
 H         -9.6494277358       -3.4371438441        0.1036094139
 H         -9.3339225505       -0.5361045023       -2.7393176543
 H         -9.6408928941        1.7546780984       -3.6674291877
 H         -8.2897403550        3.6171199742       -2.7718893233
 H         -6.6631809601        3.2107672245       -0.9607033387
 H         -4.8270599294        1.5555693600       -1.9584778775
 H         -2.4043839263        1.9139638947       -1.9475288039
 H         -0.7579661737        3.4770057949       -1.0932640244
 H          1.6667699361        3.8077394895       -1.0739125635
 H          3.0704653206        0.1191216737       -1.2289608074
 H          4.4405150282       -1.9077686466       -1.4332887213
 H          8.6102256291       -0.4082235725       -0.5813431370
 H         10.9721358182       -0.9826883241       -0.9851517468
 H         11.7221363044       -3.3138605679       -1.0061691558
 H         10.1147631635       -5.1592681322       -0.6506978781
 H          7.8744908883       -6.6834854370       -0.1984824869
 H          5.5804524449       -7.4936002376        0.2454784629
 H          3.7381525115       -5.9135749161        0.5672194085
 H          4.1085404337       -3.4809753556        0.4307186250
 H          7.1919053003       -0.3342647500        1.4282578690
 H          5.8541169907        1.7185947164        1.5865393342
 H          3.0740126762        1.9324416756        3.0697694520
 H          3.6214188663        3.5843040037        4.8186377914
 H          4.6510213758        5.7323269163        4.2324306584
 H          5.1596024735        6.2787687340        1.8770275226
 H          5.5152055664        6.3445899310       -0.6854478569
 H          5.6141624330        5.9462656117       -3.1218956744
 H          4.7598854242        3.8551196153       -4.0784502192
 H          3.7824937899        2.1142248020       -2.6269556391
 H          2.1157870423        0.3583880892        1.4018216190
 H         -0.3120238586        0.0336125327        1.3892063262
 H         -2.2902575100        1.1173310193        2.2452892616
 H         -4.7316140116        0.7689167709        2.2351096178
