  80
       -116.66182983
 C         -5.9567561233        0.4701913996        3.2718402573
 C         -6.1464509633        0.3163447118        1.7517422252
 C         -7.6436900724        0.3612614410        1.3961083518
 C         -5.4475459829        1.4686884826        1.0557770930
 C         -5.8271414886        2.7722945571        1.3426392749
 C         -5.2299556945        3.8617707600        0.7354297805
 C         -4.2242441179        3.6521957115       -0.1907181509
 C         -3.8284430679        2.3671798389       -0.4958694155
 C         -4.4271970782        1.2641038944        0.1205157397
 N         -4.0056469630       -0.0129203085       -0.2040688929
 C         -3.0004082804       -0.1766955815       -1.1989489038
 C         -3.3901380155       -0.3797674437       -2.5270754401
 C         -2.4577766172       -0.5423196299       -3.5314837507
 C         -1.1157883948       -0.4953224090       -3.1823489948
 N         -0.0004890824       -0.6204799143       -3.9702679838
 C          1.1207901021       -0.5048528731       -3.1893980237
 C          2.4601628891       -0.5634759591       -3.5470870379
 C          3.4004819312       -0.4125319691       -2.5482344175
 C          3.0205062496       -0.2062573403       -1.2177617253
 N          4.0300715474       -0.0573774276       -0.2247475469
 C          4.4889282020       -1.1810602531        0.4384771905
 C          3.9541877358       -2.4344607292        0.1251361808
 C          4.3909934331       -3.5731612491        0.7682674007
 C          5.3724250627       -3.4827203303        1.7386906893
 C          5.9032592573       -2.2442626112        2.0498873447
 C          5.4827950242       -1.0823311955        1.4183662506
 C          6.1057487889        0.2459397541        1.8037861472
 C          7.6206918152        0.1757178457        1.5393142228
 C          5.8393216160        0.5003571776        3.2985829909
 C          5.5244317826        1.3970172832        1.0049833098
 C          5.9849110560        2.6867736826        1.2290025471
 C          5.4900970489        3.7745803265        0.5331241668
 C          4.5036166097        3.5779734032       -0.4162657750
 C          4.0273026369        2.3069984524       -0.6587396988
 C          4.5275374817        1.2053094039        0.0420950627
 C          1.6856817383       -0.1458984083       -0.8549959478
 C          0.7254865254       -0.2961401722       -1.8457802323
 C         -0.7103233279       -0.2898882682       -1.8411916951
 C         -1.6627692624       -0.1314682344       -0.8441056953
 C         -4.5568604882       -1.1375050258        0.3831881753
 C         -4.0752208553       -2.4036833044        0.0366737194
 C         -4.6067635875       -3.5438929390        0.6009340478
 C         -5.6315844255       -3.4422816824        1.5243039761
 C         -6.1050162166       -2.1908026697        1.8735823858
 C         -5.5865619112       -1.0268445012        1.3239402024
 H         -4.8961725856        0.4587410743        3.5146014117
 H         -6.4395566745       -0.3418248291        3.8075242861
 H         -6.3790502787        1.4071329222        3.6231492410
 H         -8.0831586412        1.3108703409        1.6880342072
 H         -7.7720156201        0.2393389224        0.3222636119
 H         -8.1853156744       -0.4349411729        1.8988375138
 H         -6.6132169624        2.9501961811        2.0608206375
 H         -5.5491699499        4.8626634063        0.9829629055
 H         -3.7456945296        4.4884840657       -0.6783519393
 H         -3.0448759774        2.2095537605       -1.2209091603
 H         -4.4450132632       -0.4085087360       -2.7557716040
 H         -2.7644958467       -0.6988489091       -4.5544017472
 H         -0.0037664102       -0.7780472942       -4.9641986897
 H          2.7588263284       -0.7223135050       -4.5720462838
 H          4.4536203465       -0.4515781113       -2.7832218084
 H          3.1880662995       -2.5105488889       -0.6310936190
 H          3.9629201494       -4.5302430159        0.5096446597
 H          5.7227820544       -4.3664612846        2.2497689342
 H          6.6686391741       -2.1884550850        2.8091204920
 H          8.1058750357        1.1083945073        1.8127559956
 H          7.8030468913       -0.0093928859        0.4824276978
 H          8.0775833240       -0.6266742998        2.1116697624
 H          6.2475986382       -0.3014953758        3.9072784470
 H          4.7673772783        0.5565752546        3.4785026484
 H          6.2902296588        1.4354070813        3.6189316985
 H          6.7532030124        2.8549235193        1.9684521102
 H          5.8713558459        4.7644285376        0.7325396334
 H          4.1019917372        4.4137225529       -0.9697835236
 H          3.2562513107        2.1592873287       -1.3992149238
 H          1.4080700702        0.0139193596        0.1754541207
 H         -1.3769631039        0.0261566061        0.1844558135
 H         -3.2745467042       -2.4881929811       -0.6819557911
 H         -4.2190681605       -4.5110391352        0.3172517900
 H         -6.0587095555       -4.3272626901        1.9707134550
 H         -6.9040229335       -2.1261797041        2.5966254873
