  116
       -170.00499167
 C        -11.3637156812       -4.9859449956       -1.5967799515
 C        -11.5914729053       -4.0653516201       -0.3892398367
 C        -12.9423516353       -3.3673227864       -0.5701212892
 C        -11.6582924950       -4.9016889213        0.8968201746
 C        -10.4349336026       -3.0823185079       -0.2872159536
 C         -9.1401634539       -3.5782980409       -0.0855372724
 C         -8.0329108474       -2.7624120289        0.0303107837
 C         -8.2227880242       -1.3910763978       -0.0494123065
 C         -9.5112603371       -0.8680748516       -0.2893757676
 C        -10.6073039661       -1.7112972696       -0.4009328876
 C         -9.3607758323        0.5591532100       -0.3839083232
 C        -10.2627590884        1.5929353083       -0.5909059204
 C         -9.8135433200        2.9044960476       -0.6085875168
 C        -10.7415219671        4.0869034593       -0.8431337458
 C        -10.2670175521        4.8591722349       -2.0825926951
 C        -10.7087810219        5.0056130167        0.3865989917
 C        -12.1926195863        3.6584142045       -1.0782776738
 C         -8.4510459564        3.1474080786       -0.3900504632
 C         -7.5328761231        2.1385794910       -0.1809016400
 C         -7.9880865000        0.8288256612       -0.2006635941
 N         -7.3075079147       -0.3569113530        0.0027383755
 C         -5.9375246783       -0.4813550017        0.2264545743
 C         -5.4541211750       -1.2977937195        1.2517306765
 C         -4.1020380028       -1.4087183589        1.4741391865
 C         -3.1727827681       -0.6911548197        0.7031809123
 C         -1.7530834941       -0.8167418133        0.9432101793
 C         -1.2129778981       -2.0834873361        1.2177889212
 C          0.1335976043       -2.2910671797        1.3011709104
 C          1.0519811258       -1.2136633228        1.1282392837
 C          2.4308900791       -1.3985557425        1.2085843803
 C          3.3073740274       -0.3386992252        1.0394380282
 C          2.8408081168        0.9546701393        0.7844390247
 C          3.7307157497        2.0722805854        0.6010850997
 C          5.1508317856        1.8957063063        0.3981024304
 C          6.0795099537        2.7763110175        0.9787926628
 C          7.4301157199        2.6026107915        0.8014212671
 C          7.9182466016        1.5466462895        0.0236627744
 C          9.3475256562        1.3908061312       -0.1144127901
 N         10.2115250298        2.3793421646       -0.0954716024
 N         11.4314589350        1.8804692226       -0.2815238133
 C         11.3374008341        0.5797719429       -0.4102726026
 C         12.4694484551       -0.3123255425       -0.5877112602
 C         12.5063262414       -1.5843528146       -0.0197345693
 C         13.6115583938       -2.3932038491       -0.2078339440
 C         14.6889033838       -1.9443837082       -0.9534198852
 C         14.6669207984       -0.6709820591       -1.5001706334
 C         13.5666014595        0.1434674249       -1.3177700571
 N         10.0181906995        0.2046807493       -0.3138013748
 C          9.4807853755       -1.0909067560       -0.3835932164
 C          8.6886055423       -1.5665893338        0.6562365797
 C          8.1579107674       -2.8407908329        0.5811588840
 C          8.4194011942       -3.6420775810       -0.5185877006
 C          9.2132663650       -3.1669588287       -1.5495986711
 C          9.7442290343       -1.8916108728       -1.4894841972
 C          7.0017130008        0.7066434476       -0.6177742584
 C          5.6512553931        0.8752574189       -0.4276356632
 C          3.1901726845        3.3683319163        0.5806373913
 C          1.8437677565        3.5891962655        0.6204182611
 C          0.9258074208        2.5006905765        0.7018036047
 C         -0.4527630759        2.7001728163        0.7449598514
 C         -1.3292574941        1.6302328459        0.8248638733
 C         -0.8627278909        0.3125263643        0.8655116955
 C          0.5400677193        0.0926441517        0.9166616815
 C          1.4378643310        1.1806340101        0.7900433476
 C         -3.6741585535        0.1110177229       -0.3356459660
 C         -5.0240144243        0.2097086170       -0.5741162471
 H        -10.4393929990       -5.5482414078       -1.4982267893
 H        -11.3091771716       -4.3990653690       -2.5112840825
 H        -12.1850412024       -5.6933531973       -1.6885514730
 H        -13.7319457773       -4.1142224477       -0.6216464038
 H        -13.1568487125       -2.7085843126        0.2683164901
 H        -12.9660602712       -2.7919042891       -1.4925926621
 H        -11.7858942232       -4.2525533315        1.7607233255
 H        -12.5011146437       -5.5882098003        0.8533287198
 H        -10.7533897595       -5.4853297783        1.0400780867
 H         -8.9865534442       -4.6445567958       -0.0205705416
 H         -7.0503648134       -3.1891602658        0.1633708517
 H        -11.5761969602       -1.2766800407       -0.5803818371
 H        -11.3029770920        1.3509970123       -0.7297485362
 H        -10.9336128230        5.6958510607       -2.2805053091
 H         -9.2626403756        5.2503620463       -1.9472068314
 H        -10.2640368386        4.2065141506       -2.9532249208
 H        -11.3817485897        5.8481516402        0.2424865976
 H        -11.0245714371        4.4585563490        1.2725278749
 H         -9.7104956531        5.3949643655        0.5654251621
 H        -12.2740196229        3.0158910228       -1.9520129399
 H        -12.5923885954        3.1368098122       -0.2117352389
 H        -12.8067670157        4.5398131502       -1.2513389631
 H         -8.0905739698        4.1645118043       -0.3779139381
 H         -6.4957432258        2.3724823998        0.0055228349
 H         -6.1541492541       -1.8143875887        1.8914563708
 H         -3.7487758396       -2.0164956641        2.2938027418
 H         -1.8866811522       -2.9246691024        1.3007978519
 H          0.5288250280       -3.2805409062        1.4771364234
 H          2.8192409820       -2.3863687163        1.4118486776
 H          4.3677857303       -0.5133043454        1.1377781564
 H          5.7248677148        3.5736287664        1.6145668988
 H          8.1414176805        3.2661291497        1.2676485410
 H         11.6832352469       -1.9363179983        0.5842236489
 H         13.6322390804       -3.3779472125        0.2353690265
 H         15.5474041670       -2.5825439790       -1.0998784038
 H         15.5105241298       -0.3132948638       -2.0712471006
 H         13.5336719745        1.1393004346       -1.7310551291
 H          8.4939143429       -0.9339843315        1.5096818883
 H          7.5417770283       -3.2091613712        1.3874023012
 H          8.0045736742       -4.6369510688       -0.5717337972
 H          9.4182999707       -3.7886211981       -2.4078356622
 H         10.3618804405       -1.5104401358       -2.2892279689
 H          7.3495074537       -0.0636215554       -1.2898861827
 H          4.9565853715        0.2440658418       -0.9619616367
 H          3.8638839344        4.2054815954        0.4670806972
 H          1.4481123099        4.5926961753        0.5684250331
 H         -0.8397983929        3.7088195556        0.7212480100
 H         -2.3891752582        1.8228290051        0.8902031591
 H         -2.9804807149        0.6145075941       -0.9925806778
 H         -5.3874268916        0.7979518478       -1.4036530170
