78
 energy: -140.103544572475 gnorm: 0.000130374009 xtb: 6.7.1 (edcfbbe)
O           -3.40994929707578        2.86331123371467       -1.61606676438591
S           -2.87946152248945        3.56737268279510       -0.47655749528602
O           -3.02180952753327        4.99880157200230       -0.43432981236046
C           -3.54239208575741        2.84008463985594        1.02216174728164
C           -3.91812982523218        1.51048579997073        1.01183356331815
C           -4.36136733771415        0.91795787191913        2.18341355783885
C           -4.42124651768973        1.67187908544782        3.34633287407763
C           -4.04735089380368        3.00748363052172        3.34483437680274
C           -3.59721466250536        3.59796311436051        2.17520494502530
C           -1.12845180334678        3.15946496345247       -0.33190722489834
C           -0.16142152793198        4.13882007491227       -0.20448437448315
C            1.16741520992362        3.76441175120870       -0.05770071226778
C            1.51577520608462        2.42566838445196       -0.01677841031012
C            0.53092225362775        1.44551601069488       -0.13237271390249
C            0.84822114820822        0.01882597807008       -0.06573502598506
N           -0.17784933358542       -0.82546508244311       -0.06265958189040
C            0.12408170197399       -2.11779524552370       -0.03038734908584
C           -1.00210179229207       -3.05230600937433       -0.05714801298442
C           -0.80963177028304       -4.41083511334416       -0.30397656479257
C           -1.89527105865730       -5.26468718295936       -0.38597251509105
C           -3.18237509337684       -4.76972518285495       -0.23107980296939
C           -3.36361590444374       -3.42405452625107        0.02982473175309
S           -5.02929672876309       -2.77138779042139        0.26625996772513
O           -5.10322311206795       -2.22550622449470        1.60002323877573
O           -5.97163702232397       -3.80205077742908       -0.07826212124000
C           -5.19059749132601       -1.39603214586224       -0.88384216567283
C           -4.37937465353635       -1.28521755130919       -1.99653415781875
C           -4.52012439200954       -0.18360745726529       -2.82666916485142
C           -5.47198532065652        0.78332129555713       -2.54550412151390
C           -6.29552669234319        0.64912639536241       -1.43902724863238
C           -6.15285313699507       -0.44469186544065       -0.60071759774638
C           -2.29399470182246       -2.56192855468540        0.12946656683658
N            1.36653670337365       -2.59208781241222       -0.00235235990574
C            2.33040649575456       -1.67625872346902        0.02184254888120
C            3.72370407807997       -2.11944281916281        0.06936634047618
C            4.06644516780687       -3.46643795788468       -0.02998365271127
C            5.39712365824850       -3.84601637265113       -0.01352167664719
C            6.39488022773188       -2.88837207762457        0.09919986830815
C            6.04613377044964       -1.55418903652727        0.20840717679733
S            7.33921931533189       -0.30418277349411        0.38682966614585
O            8.44011978916478       -0.68058791081864       -0.45870623003990
O            7.59605491145070       -0.12698228391102        1.79130415238549
C            6.55665376545227        1.18084642378913       -0.25674201639021
C            6.46582308932794        1.34901443115278       -1.62471386038902
C            5.79103305537421        2.45082410850501       -2.12426315004543
C            5.21279879527612        3.36085911590481       -1.25225707094905
C            5.31765412187494        3.18493073316806        0.11913050584938
C            5.99437376180802        2.08590381210519        0.62297108579446
C            4.72776377131523       -1.16136628165578        0.20046671583634
N            2.11785617939044       -0.36166828273613       -0.00997917143885
C           -0.79826969285272        1.82381921149235       -0.30330690423216
H           -3.88320044349860        0.96665288808330        0.08140500303797
H           -4.65700979425458       -0.12134733500855        2.18850616236622
H           -4.76795473867577        1.21371770822020        4.26033097350184
H           -4.10537342922197        3.58792654307436        4.25330196705676
H           -3.30435776611217        4.63542502264810        2.13437088868483
H           -0.46408104988190        5.17418228458976       -0.22935436713628
H            1.93142846246348        4.52174970327184        0.03134020185147
H            2.54441535447409        2.12242670525274        0.10501237998911
H            0.19709733373399       -4.77486350927540       -0.43727066542987
H           -1.74254645648543       -6.31557392227295       -0.57890223076242
H           -4.05298393149335       -5.40246587686052       -0.30695946105243
H           -3.64228572416384       -2.04555769101618       -2.20857731811996
H           -3.88000581987030       -0.07531057325553       -3.68835873084320
H           -5.56090233663729        1.64780879673461       -3.18299778967721
H           -7.03837093907396        1.40075365106419       -1.22143992019210
H           -6.76382732721144       -0.56872060098509        0.27953160652174
H           -2.44803751081061       -1.51722657105900        0.34840959854094
H            3.27885952789261       -4.19749668795249       -0.12368482450341
H            5.66113232657287       -4.88958705447163       -0.09291355164488
H            7.44016179416561       -3.15474362153866        0.09825376525112
H            6.93154950939755        0.62385150444109       -2.27340810893103
H            5.71313011425158        2.59923692966236       -3.19045132191684
H            4.68113446433761        4.21456626063005       -1.64552749935854
H            4.87378296787418        3.90071721174005        0.79477301481532
H            6.10170523115084        1.91469864169444        1.68284136560934
H            4.45175425057730       -0.12328770657962        0.28841110588968
H           -1.55828330951487        1.06974223787575       -0.41999260206991
