78
 energy: -140.095147679797 gnorm: 0.000053607846 xtb: 6.7.1 (edcfbbe)
O           -5.64682504460478        0.28966923215962       -2.30227020238451
S           -5.76758159550958        1.70381872125402       -2.06591208378958
O           -6.21315949840866        2.54601834518898       -3.14395169730817
C           -6.83225463808511        1.97202711911006       -0.64357671118566
C           -7.71723276976598        3.03160939108109       -0.64230818322898
C           -8.50472488852307        3.25185571916451        0.47602218055078
C           -8.39144083548886        2.41450042423823        1.57467787003303
C           -7.49829518231808        1.35380719500575        1.56134300880416
C           -6.71003207395288        1.13032528121147        0.44504560831787
C           -4.18437094551232        2.31585384468638       -1.46535081084014
C           -3.95267577575845        3.67915461479673       -1.43789401768401
C           -2.75127568981311        4.15206618535819       -0.93230908524495
C           -1.80161728916567        3.26400160089064       -0.45856474794523
C           -2.04275412767439        1.89079465602148       -0.49178101319499
C           -1.03817497746543        0.94684038161760        0.00071335049320
N            0.12999197525909        1.43163036924905        0.40720598823857
C            1.01085659770880        0.53759215600466        0.84645449053725
C            2.30271165921647        1.02999159464736        1.32749596126336
C            3.25035271733269        0.14704113226566        1.84451888279022
C            4.46359487082417        0.61974069858732        2.31312331550849
C            4.74554473109992        1.97649058859566        2.26447954179757
C            3.80077716619416        2.84494245649029        1.74841456110035
S            4.18718909961134        4.59977252189919        1.63340937028312
O            4.99234072303174        4.97419198874949        2.76518215061484
O            2.96527301900423        5.31858583096502        1.38843047989725
C            5.20706604053458        4.65915263325069        0.15466052483584
C            6.57728575720763        4.77842819067962        0.27431586355223
C            7.35692129598265        4.78498922755534       -0.87084928649114
C            6.75622831421037        4.66743211646198       -2.11440149788484
C            5.37885286562942        4.54788834547671       -2.22147609257289
C            4.59647150978516        4.54143680101836       -1.07894473223797
C            2.58742978143025        2.39359539614870        1.28017447158342
N            0.78873314257401       -0.77204727100230        0.87589524320908
C           -0.40780668275373       -1.16937449355358        0.45350889895614
C           -0.70052354553960       -2.60362627721204        0.47740803197622
C           -1.92609401811585       -3.08424914341874        0.01744354314989
C           -2.20324271979235       -4.43965624630078        0.05166413046925
C           -1.25803946727927       -5.32900601680539        0.53948216564572
C           -0.04364455386159       -4.84413278944278        0.99050214063957
S            1.20201697737091       -6.00765007964548        1.57098894370105
O            0.55742609610833       -7.03035729970005        2.35082523062943
O            2.27619989703756       -5.26079718808787        2.16940633340307
C            1.77903318648210       -6.73424469986751        0.03175048196749
C            2.54349998599547       -5.95966961304913       -0.81923495872960
C            2.96440598697629       -6.49719311184237       -2.02391994243179
C            2.61297989890789       -7.79566574720780       -2.36096115947043
C            1.84542572885821       -8.56246261201231       -1.49858164461382
C            1.42202629030027       -8.02767029388003       -0.29264218146030
C            0.24918785326373       -3.49931531188823        0.96601373413231
N           -1.35294380550034       -0.34511210624394        0.01459247970994
C           -3.25089518262935        1.41719465536403       -1.00027670127429
H           -7.78456147703796        3.65392774251401       -1.52087824806567
H           -9.20562220148698        4.07264763158424        0.49007862259935
H           -9.00595854181132        2.58642603616065        2.44577202969350
H           -7.41840317730099        0.70245842395730        2.41842042700431
H           -6.01507783977453        0.30679245612533        0.39857159480548
H           -4.70602775889433        4.34621261698641       -1.82677555583811
H           -2.55542866585535        5.21312769198610       -0.90813629226080
H           -0.86375666023727        3.61676324155441       -0.05885045662594
H            3.01469657254086       -0.90509373831821        1.87999671424496
H            5.18836668059320       -0.06854301032597        2.72024785821009
H            5.67598689329929        2.37590256327915        2.63657768696222
H            7.00632549596356        4.88038072542248        1.25879278399526
H            8.42906963428510        4.88385787736251       -0.79399470760374
H            7.36441366914723        4.67397361701476       -3.00667408205921
H            4.91674063613019        4.46242008196068       -3.19331120405943
H            3.52185067019767        4.46378438609287       -1.12901361434942
H            1.86227099660126        3.09451758376215        0.89973982380172
H           -2.65008534398915       -2.38007894620884       -0.36161749467041
H           -3.15609488570696       -4.80348639448687       -0.30119856852454
H           -1.45154506621462       -6.38910371792779        0.59053631563915
H            2.80980549498239       -4.95724147612788       -0.52276274039815
H            3.56615772172354       -5.90692650197648       -2.69830337813492
H            2.94329363414251       -8.21325976170478       -3.30039312982359
H            1.57920669718424       -9.57428851571771       -1.76405631470261
H            0.83210949022114       -8.59543753847930        0.40982317971737
H            1.19868519474067       -3.14905261221619        1.33735959092231
H           -3.45063672382753        0.35911342372863       -1.04989406828390
