  97
       -148.20359040
 C         -1.2274185151       -0.9703581712        3.6527101934
 C         -1.6224545941        0.3148258111        2.9367947345
 C         -0.4034551875        1.1487413636        2.5494875087
 C         -0.7895492409        2.3738312653        1.7228841465
 C          0.4398305051        3.1000286407        1.1813944928
 C          0.1130544112        4.2274855465        0.1994538111
 C         -0.6448694128        3.8121783889       -1.0638436885
 C          0.1000788871        2.8325279628       -1.9760611448
 N          0.0836476349        1.4768469935       -1.4791981603
 C         -1.0664394560        0.7333007974       -1.2771197908
 O         -2.1816116287        1.1023852681       -1.6116426956
 C         -0.6099959024       -0.5190453551       -0.6636675260
 C         -1.1976610219       -1.6657130558       -0.1090211409
 C         -2.5447647145       -1.9971003570        0.1729329050
 C         -2.8661830969       -3.2136690855        0.8204662710
 C         -4.1672208052       -3.5195395661        1.1442305022
 C         -5.1977702654       -2.6382356627        0.8491150953
 C         -4.8988638827       -1.4359482179        0.1931303207
 N         -5.9301958180       -0.5310834160       -0.0875371824
 C         -5.9129754672        0.8166473815        0.1970479056
 C         -4.9354152063        1.5746052234        0.8284056212
 C         -5.1862507752        2.9204430958        1.0168802808
 C         -6.3808889459        3.5031944784        0.6016311772
 C         -7.3696380656        2.7474988594       -0.0043606455
 C         -7.1398531517        1.3956738958       -0.2063552627
 C         -7.9253565261        0.3305203206       -0.7719817165
 C         -9.1856558448        0.2722691358       -1.3450357816
 C         -9.6402514227       -0.9449496589       -1.8224221364
 C         -8.8467215742       -2.0867333478       -1.7487974412
 C         -7.5854147117       -2.0525224233       -1.1838389909
 C         -7.1350146806       -0.8403537054       -0.6761139410
 C         -3.5993199998       -1.1222512593       -0.1494166824
 S          0.0903417266       -2.7680778899        0.3983331783
 C          1.3832987583       -1.6436073486       -0.0512223988
 C          2.7238029315       -1.9776072234        0.2348767602
 C          3.0480630415       -3.2229532026        0.8313720635
 C          4.3504564971       -3.5481859659        1.1260683227
 C          5.3834973424       -2.6617532076        0.8531634388
 C          5.0813375987       -1.4288904175        0.2547578981
 N          6.1134623180       -0.5163539564        0.0045648278
 C          6.1031294692        0.8159190626        0.3533122938
 C          5.1334637869        1.5445284025        1.0299948371
 C          5.3909768525        2.8784667419        1.2831881509
 C          6.5839827886        3.4767592220        0.8859866270
 C          7.5641858982        2.7497028473        0.2324458805
 C          7.3277364837        1.4105699438       -0.0340089599
 C          8.1033123263        0.3719581487       -0.6602749856
 C          9.3555826164        0.3386552967       -1.2520552518
 C          9.8001254468       -0.8552985939       -1.7942855988
 C          9.0046818046       -1.9976235536       -1.7652065705
 C          7.7507009822       -1.9878030960       -1.1829880355
 C          7.3103641715       -0.8002591985       -0.6118644669
 C          3.7808247843       -1.0922673476       -0.0559278720
 C          0.7948497330       -0.4971321930       -0.6210471509
 C          1.2467211400        0.7760719378       -1.1717547491
 O          2.3656529385        1.2215107754       -1.3812076420
 H         -0.5950327467       -1.5773092280        3.0103838567
 H         -2.1104137113       -1.5514195603        3.9102304020
 H         -0.6794963081       -0.7515504895        4.5667706366
 H         -2.2825251402        0.9045975023        3.5770111591
 H         -2.1725515179        0.0523041695        2.0337674760
 H          0.2742282561        0.5255753219        1.9651030343
 H          0.1287318235        1.4612515954        3.4506603438
 H         -1.3827356528        3.0594252146        2.3325026052
 H         -1.4140998514        2.0441732428        0.8955207154
 H          1.0989657153        2.3837527823        0.6973938177
 H          0.9949907928        3.5303268172        2.0196576502
 H         -0.4873566651        4.9819678262        0.7142475748
 H          1.0519270334        4.6998148089       -0.0990003553
 H         -0.8393804176        4.7145649639       -1.6472015204
 H         -1.6073813471        3.3778156834       -0.8040305360
 H         -0.3669558055        2.8480617557       -2.9662923181
 H          1.1515626524        3.1104921438       -2.0671852825
 H         -2.0714623500       -3.9003815817        1.0661025894
 H         -4.3904914846       -4.4493861192        1.6456534498
 H         -6.2114833896       -2.8524586180        1.1477402265
 H         -4.0140928544        1.1314641933        1.1651434116
 H         -4.4385748617        3.5328554943        1.4983108517
 H         -6.5381657199        4.5589418806        0.7633800048
 H         -8.3009274807        3.1983612355       -0.3110816472
 H         -9.7953553286        1.1595965994       -1.4208645901
 H        -10.6200840144       -1.0112497858       -2.2701334769
 H         -9.2215157208       -3.0177098766       -2.1465382926
 H         -6.9661484834       -2.9355772046       -1.1516874947
 H         -3.3938095631       -0.2101671458       -0.6847235581
 H          2.2525113005       -3.9173150171        1.0533567964
 H          4.5744125682       -4.4993328371        1.5856312138
 H          6.3996596268       -2.8933718030        1.1296690795
 H          4.2117950844        1.0860664960        1.3472043493
 H          4.6499278656        3.4687947492        1.8008895703
 H          6.7468974263        4.5224001549        1.0991208111
 H          8.4937076374        3.2128062983       -0.0611892967
 H          9.9669188488        1.2271025139       -1.2930820640
 H         10.7734916009       -0.9017142154       -2.2583799523
 H          9.3715109468       -2.9090570172       -2.2124783134
 H          7.1289662537       -2.8697303972       -1.1854174343
 H          3.5722855295       -0.1541820673       -0.5419350625
