97
 energy: -148.328646103703 gnorm: 0.000036985893 xtb: 6.7.1 (edcfbbe)
C            8.60192283096204        6.48381695262019       -0.72543134560284
C            7.45223271322192        6.72769934891064        0.24580385896229
C            6.31157501855319        5.73221313258160        0.04098519400868
C            5.15880163158397        5.97659564755606        1.01340271487784
C            3.95019020949735        5.07279233139146        0.76201972297135
C            4.23071815604228        3.60039561158244        1.06205356206360
C            2.96987942075829        2.73663599360813        1.06000315824400
C            2.33763846831002        2.63224472480669       -0.32911873534569
N            1.20744756153352        1.72795574572189       -0.33191592687933
C           -0.09866371564392        2.14678706509197       -0.12057151805476
O           -0.40260740363062        3.30385217648811        0.07674561974682
C           -0.91939476908461        0.93126177493826       -0.21313396933487
C           -2.24798135800720        0.57873573413665       -0.17310945077718
C           -3.45636461408901        1.34822002248601        0.03439675628867
C           -3.41616423017249        2.72258799864222        0.28815929104984
C           -4.59134486755223        3.42506660188105        0.48174630969848
C           -5.81870230547119        2.79033561282061        0.41807307779402
C           -5.87341593316441        1.41883343081943        0.17200405937316
N           -7.10661450795032        0.75928356620483        0.09988681448353
C           -7.51272961958183       -0.08242983268110       -0.91924851945038
C           -6.85583836237927       -0.43739109060731       -2.08913590750576
C           -7.50892889022805       -1.28402765256910       -2.96497700094797
C           -8.78928736505619       -1.76328764036420       -2.69570300252340
C           -9.45763253948417       -1.39413308301015       -1.54514659462878
C           -8.82151407813617       -0.54398933561822       -0.64929041215409
C           -9.21488007498552        0.04819315068563        0.59942421237900
C          -10.36188318430932       -0.03860221085404        1.37818413653109
C          -10.40876828267926        0.66078679071883        2.56793327290932
C           -9.32443216317344        1.42669565453334        2.99143414992198
C           -8.17264894061296        1.52835851194466        2.23405633179812
C           -8.12961201748395        0.84813031077497        1.02518452247119
C           -4.69685229249452        0.70654173780440       -0.00976698125811
S           -2.37835964522410       -1.14608541363651       -0.44883867382648
C           -0.65605125672625       -1.37573558662099       -0.60800710187589
C           -0.13443520052329       -2.70344815720884       -0.86055412729412
C           -0.95350158454255       -3.66593662780937       -1.45808266663285
C           -0.47011510445022       -4.93634808922097       -1.70112055601161
C            0.82205354084684       -5.27391414029480       -1.34094850078350
C            1.64074065827364       -4.33257636635361       -0.71697341437399
N            2.93024988619166       -4.69836563925727       -0.31198547962652
C            4.10367749075576       -4.01149493897999       -0.57061163466571
C            4.30583372088632       -2.83499745115093       -1.27743454897752
C            5.60291531235375       -2.37553266627867       -1.40682006872547
C            6.68155008371000       -3.06949982749496       -0.86251288511930
C            6.48878494504350       -4.25240273706956       -0.17723561039243
C            5.19352312418097       -4.73242821347140       -0.03045442575699
C            4.64335019024765       -5.90295815893489        0.59455549205166
C            5.20395439579164       -6.96201791036636        1.29727132521636
C            4.36806248787797       -7.93777831765618        1.80324593837646
C            2.98808384069178       -7.85674208262771        1.62949501139856
C            2.40789909206586       -6.81313246141187        0.93311042472203
C            3.24490932261927       -5.84409930253951        0.39711455451951
C            1.16436823366087       -3.04735715850935       -0.48472044198600
C           -0.03394311971883       -0.16448490071331       -0.45139537654601
C            1.33193835027584        0.36064907728998       -0.53527936734175
O            2.38441416535222       -0.19789488813560       -0.75299728920297
H            9.40172678521382        7.20280401445960       -0.56113133627406
H            8.25950884682854        6.58050436332712       -1.75394336453618
H            9.00767366573419        5.48272633902470       -0.59313779038885
H            7.07376075325662        7.74399123724581        0.11047605520669
H            7.82078227660689        6.64665201523819        1.27141306355946
H            6.69812300087415        4.72026182298407        0.17359203860607
H            5.94149934558465        5.81670831761546       -0.98397986791414
H            4.83820402194013        7.01758617435993        0.92038370737664
H            5.51202984147442        5.83198896793231        2.03731293410441
H            3.63537354410385        5.18704011885382       -0.27680325084177
H            3.12643162433808        5.40784026904694        1.39747484790820
H            4.93431007349378        3.19718425661043        0.33217152079747
H            4.69339027530075        3.52495122153597        2.04878631668525
H            2.23471849083902        3.15054752887773        1.75454549194815
H            3.22664251357882        1.72845322373359        1.39630987920818
H            1.96920841024800        3.60545544890698       -0.65891728367413
H            3.06803763745351        2.24523537288764       -1.04461711909789
H           -2.47104054367058        3.23644375974973        0.32940437313011
H           -4.54807870752958        4.48663025965754        0.67290067967515
H           -6.73408736324068        3.34828077811648        0.54207568799533
H           -5.87204435226490       -0.05703972853176       -2.31862327211606
H           -7.01724803103022       -1.57683658289865       -3.88123251192724
H           -9.26552035338843       -2.42513467488328       -3.40419732551628
H          -10.45655686751550       -1.75179016831018       -1.34484493110995
H          -11.19575558524988       -0.64535212070391        1.05813428407021
H          -11.29265859258234        0.60900341398928        3.18673236704219
H           -9.38387012416577        1.95011279779112        3.93464645270264
H           -7.33195259092565        2.11027195667317        2.58084646827856
H           -4.74764140921491       -0.35908785164239       -0.17749681000311
H           -1.96168521877753       -3.40500836106777       -1.74254554512788
H           -1.10149437340240       -5.66896422570665       -2.18016994358193
H            1.20853019755492       -6.25993767258047       -1.54819797468472
H            3.48421082339117       -2.28221000342907       -1.70370676036982
H            5.78137897548911       -1.45550987380176       -1.94402810680044
H            7.68019304882913       -2.67592821412283       -0.98488896500407
H            7.32418752419618       -4.79781657410703        0.23604386349958
H            6.27207134561776       -7.01386733071955        1.44720947794429
H            4.78418328320990       -8.77092440970734        2.35048410863850
H            2.35635721456396       -8.62435719470395        2.05232435034307
H            1.33571194291174       -6.75280429554339        0.82330430361428
H            1.79733922572577       -2.32368320092307        0.00212090825143
