97
 energy: -148.260437129802 gnorm: 0.000076256472 xtb: 6.7.1 (edcfbbe)
C           -1.10606964791735       -0.74123009505144        4.07310825188747
C           -1.51368968801611        0.46252242848689        3.23246046666751
C           -0.30834788486513        1.29357259871774        2.79769960213289
C           -0.71482308490891        2.48287990003901        1.92967264131953
C            0.49844352075990        3.22091455310545        1.36751808344792
C            0.14696231655210        4.35081460001245        0.39692265766188
C           -0.63969129727832        3.94077020717882       -0.85099291611044
C            0.06936362127281        2.94504174221076       -1.77540112270910
N            0.05701794283034        1.58787364127044       -1.27835417766864
C           -1.09686040047297        0.85110209958933       -1.06014310771618
O           -2.22397075447158        1.26511475377171       -1.33031458088171
C           -0.65003535372473       -0.41615401366557       -0.50676376608980
C           -1.23315610516360       -1.58238473036325       -0.00017175871758
C           -2.58794350153747       -1.96253334711629        0.21131887149257
C           -2.90125966038888       -3.20795987644958        0.80120622452183
C           -4.20812626985897       -3.57293524971373        1.03238502046889
C           -5.25158378494430       -2.72656803979568        0.68872046896178
C           -4.95995161328997       -1.49537113969459        0.08723806381888
N           -6.00785738014116       -0.63067453006045       -0.25588841561229
C           -6.08064280104677        0.71167219654263        0.05166722352140
C           -5.20317584659225        1.50116460430384        0.78474671159897
C           -5.53412255963225        2.83087687235433        0.97024748291296
C           -6.71152237471422        3.36523130411631        0.45387056593446
C           -7.60461964741225        2.57625894328553       -0.25322542747859
C           -7.29244437290290        1.24162851003052       -0.45378085391249
C           -7.97195962069486        0.15259861841348       -1.10857230059329
C           -9.17197249252192        0.04930945752829       -1.79304133308360
C           -9.52316863574100       -1.17799585830137       -2.33261949202824
C           -8.68462378298065       -2.28263371633048       -2.21032210852018
C           -7.48096297958783       -2.20256494771564       -1.53313073343706
C           -7.13862541078201       -0.98254174910930       -0.96229023332199
C           -3.65106234042474       -1.11873550452250       -0.15047411745528
S            0.05295178341904       -2.68296349938956        0.48516549470402
C            1.34747760845621       -1.56828927387769        0.05287568566788
C            2.69537866742318       -1.94293318947283        0.29266602130375
C            3.00612960689657       -3.21494059408744        0.82976021374717
C            4.31001201860696       -3.58615294364894        1.06447998482718
C            5.35625727253889       -2.71953143539484        0.78308200429038
C            5.06716937253487       -1.45756476131468        0.24641754076260
N            6.11480366611118       -0.56460567337272       -0.01794638348947
C            6.17166295570584        0.74996309241476        0.39286380276890
C            5.28086270471676        1.46886066298369        1.18030258993438
C            5.59812638687466        2.78169723518358        1.47671821426089
C            6.77519168731659        3.36575274067875        1.01622341716970
C            7.68108097981446        2.64501826541056        0.25430531179283
C            7.38281840324659        1.32869020450923       -0.05748675091271
C            8.07889436896272        0.29917238004077       -0.78741164420631
C            9.28558059161991        0.25878463707160       -1.46655718154046
C            9.65420238980287       -0.92170557479670       -2.09243143631955
C            8.82766684153188       -2.04154124938223       -2.05851357615255
C            7.61730929382223       -2.02401686926717       -1.38878444153836
C            7.25574317309388       -0.85185086851320       -0.73555721391942
C            3.76245429614566       -1.07480068495992        0.00127721113203
C            0.76798334647610       -0.40191591242526       -0.47053892778614
C            1.21716975491300        0.87434377558817       -0.98332636770512
O            2.34525740774643        1.33271389182759       -1.16727276679947
H           -0.43426729857508       -1.38590638112689        3.51022608947536
H           -1.98074310795627       -1.32165759302732        4.35800226508529
H           -0.59406969247119       -0.41876699120038        4.97732975978542
H           -2.19951535390532        1.09284623473675        3.80396624252740
H           -2.04453756874105        0.11676372817948        2.34087301837816
H            0.37681113741433        0.65709002855159        2.22961965785077
H            0.22976212926593        1.64921742305859        3.67989580772736
H           -1.32287131517758        3.17572213631656        2.51668174591119
H           -1.33478691322374        2.11421207463007        1.11067614650158
H            1.15713029456346        2.50899275752671        0.86869350528427
H            1.06571140668601        3.64938491501773        2.19878090729789
H           -0.44214989564765        5.10222433674831        0.92961011275249
H            1.07931374625935        4.82435153151442        0.07737143639854
H           -0.82974689253508        4.84270965399969       -1.43750697294537
H           -1.60927535189356        3.52395541125136       -0.57590162080323
H           -0.42905743428408        2.95426034175100       -2.75216102888134
H            1.12200164645037        3.21202741431373       -1.90619323377036
H           -2.09651265040354       -3.87169822589429        1.07836272042461
H           -4.42428459208472       -4.52393142524604        1.49553921414567
H           -6.27375542454052       -2.98931357903858        0.91081191536665
H           -4.29299028439669        1.09414763571596        1.19543899160208
H           -4.86431953247909        3.46732876621397        1.52869728699404
H           -6.93318958766559        4.40951610383877        0.61564070136023
H           -8.52374981768059        2.99021602650315       -0.63845457144625
H           -9.81520562850062        0.90823324389187       -1.90697866385915
H          -10.45573298973899       -1.27897691420868       -2.86711801718900
H           -8.97588312981125       -3.22045263082333       -2.65894441682142
H           -6.82505227685492       -3.05645894008998       -1.46361431497428
H           -3.44600864031131       -0.17822560065793       -0.63570889056672
H            2.20018197026357       -3.89693588327015        1.05490796588260
H            4.52245979798111       -4.55950060122305        1.48062425051722
H            6.37606137082035       -2.98974696752219        1.00689425872597
H            4.37246762589011        1.01958954284925        1.54960276185683
H            4.91754386007854        3.36425779981858        2.07934880715238
H            6.98667743890503        4.39474675274208        1.26583513645441
H            8.60013532913793        3.09666074197325       -0.08630885251839
H            9.92091864467529        1.12991658073456       -1.51034095720208
H           10.59189682416590       -0.97297391283876       -2.62507301365964
H            9.13399941248919       -2.94120234560289       -2.57076756095311
H            6.97072466836493       -2.88783082766037       -1.38563973905496
H            3.56245484894934       -0.10965332130650       -0.43509439535002
