97
 energy: -148.331563175656 gnorm: 0.000037612861 xtb: 6.7.1 (edcfbbe)
C           -1.12142384785583       -0.74549969520928        4.09720345067183
C           -1.52200311121668        0.44819410099583        3.23862937059942
C           -0.31224882166628        1.27269643088126        2.80294244182903
C           -0.70918641685364        2.45271469072587        1.91752600408157
C            0.51160474540192        3.18257691799503        1.36062381471518
C            0.17679918028658        4.32093748666737        0.39327010971396
C           -0.62841573750466        3.93630206948826       -0.85124699201138
C            0.06041223309662        2.94906919281395       -1.79867959185986
N            0.05806315146507        1.58817187199259       -1.30167869907654
C           -1.10008990104779        0.85853566679723       -1.08571438776507
O           -2.20930682771438        1.25850298165799       -1.37390951101158
C           -0.65749012342177       -0.41524720036557       -0.50361228565692
C           -1.22547977742972       -1.55428563977519        0.01525107192482
C           -2.60124485289782       -1.95233319384096        0.22690762933911
C           -2.89008215020009       -3.18496966596175        0.82395970478169
C           -4.19759992637685       -3.56025622040973        1.05787972739304
C           -5.24288775580597       -2.71997424828880        0.71511918010632
C           -4.97150467415391       -1.49481328760464        0.10895641401320
N           -6.01849152078443       -0.63483260715281       -0.24444847986847
C           -6.09255846203244        0.71344431379330        0.05298563148367
C           -5.22212313588395        1.50819719093485        0.78498658604950
C           -5.55260839269082        2.83851524622537        0.95849438119092
C           -6.72660949652453        3.37188000524231        0.43048668470464
C           -7.61084105435748        2.57982560666635       -0.27445091167405
C           -7.29848549185841        1.23963464160498       -0.46410015655806
C           -7.97547259483791        0.15101087417226       -1.11273218743473
C           -9.17537887261409        0.04937889998993       -1.80513865400380
C           -9.53113188580513       -1.17386961760716       -2.33815513415899
C           -8.69861959781601       -2.28284314212879       -2.20206330919339
C           -7.50082421044364       -2.20651093541966       -1.51652413894294
C           -7.15129111788967       -0.98685673168664       -0.95396560600216
C           -3.65772016154822       -1.11839035799062       -0.14142342667832
S            0.05250958954947       -2.62998343970022        0.52750563875679
C            1.33538689493228       -1.54122653154843        0.05650328218956
C            2.70845094334717       -1.93602350565559        0.29164804725498
C            2.99308652955043       -3.20293064737764        0.81501349887620
C            4.29781051072481       -3.58628480660907        1.05190026849127
C            5.34475392408286       -2.71992900012515        0.78778678194560
C            5.07721391203085       -1.45741568789304        0.26251024005417
N            6.12441608594624       -0.56673598874638       -0.00476526433585
C            6.18367791090975        0.75268899346603        0.40290469427259
C            5.30140513905294        1.47420596223326        1.19402321296677
C            5.61951382884334        2.78723467397796        1.48367357506384
C            6.79285616349667        3.37278105896369        1.01234547324075
C            7.68829771011438        2.65151707806382        0.24793244128373
C            7.38872456379160        1.33009039820971       -0.05843157143504
C            8.08074889181411        0.30399202289649       -0.78835107935529
C            9.28673449458641        0.26904086875721       -1.47678957311539
C            9.65851895970751       -0.90445322328937       -2.10271524875304
C            8.83704004812606       -2.02910960108528       -2.06117508918607
C            7.63324199532376       -2.01895075185238       -1.38198598073065
C            7.26627216914250       -0.85041793136844       -0.72942230929107
C            3.76682611331458       -1.07210682784186        0.00773428773480
C            0.77195317649771       -0.40443434719470       -0.47403729597685
C            1.21872358184402        0.88289297124378       -1.01956453905105
O            2.33254044061469        1.31883412051217       -1.22548752883622
H           -0.43846460654329       -1.39448895373761        3.55294758577055
H           -1.99824844739004       -1.32486905056391        4.37713054296334
H           -0.62430895789399       -0.41082147487574        5.00518356444965
H           -2.20953051315123        1.08610171208744        3.79905567118423
H           -2.05182947586192        0.09397251323241        2.34977404183691
H            0.38011767195303        0.62901761586591        2.25196852423686
H            0.21657512337700        1.63977781019891        3.68564426199228
H           -1.31999624453807        3.15289938057480        2.49204869198533
H           -1.32717610313836        2.07823249396628        1.09908774642477
H            1.17141143097159        2.46674886609188        0.86804892930977
H            1.07684525053189        3.60497044896325        2.19589054686655
H           -0.39363754089365        5.08123850320766        0.93266060892053
H            1.11620797490941        4.77799194597598        0.07138126129470
H           -0.81229494468490        4.84820783027440       -1.42316846416307
H           -1.60141765927826        3.53233549687084       -0.56944329539472
H           -0.46166491586711        2.95731702689773       -2.76144561463274
H            1.10796648185120        3.22036626397536       -1.95262253507686
H           -2.08314887942843       -3.84236041245302        1.10989866485922
H           -4.40651190192980       -4.51068365964066        1.52477581556173
H           -6.26379239562695       -2.99819928289660        0.92652654004365
H           -4.31632799128677        1.10460380613989        1.21044370764870
H           -4.88708787509455        3.47906464716142        1.51876363804692
H           -6.94802564145530        4.41786912792084        0.58492913418630
H           -8.52846616702590        2.98901273423749       -0.67011010763277
H           -9.81146868606689        0.91348326690636       -1.92644803340262
H          -10.46152483130684       -1.27459284714303       -2.87755675130421
H           -8.99387668873315       -3.22252328747161       -2.64579412862548
H           -6.85556958382518       -3.06811026782662       -1.43483778023166
H           -3.46617378369658       -0.17935171002412       -0.63289592703726
H            2.18522084390708       -3.88437780389838        1.03469568840674
H            4.50278288949449       -4.56505753539475        1.45791748939429
H            6.36325592708564       -3.00722859309867        0.99884492822659
H            4.39716333813416        1.02690537835894        1.57784740048365
H            4.94432505762193        3.37161968448796        2.09182021702749
H            7.00476789300811        4.40300906812376        1.25875409240170
H            8.60562089253785        3.10016596744885       -0.10324286873372
H            9.91541076109622        1.14572463794705       -1.52313705195600
H           10.59358197875509       -0.95276497478849       -2.64133156671541
H            9.14596789563594       -2.92813637136987       -2.57443369989983
H            6.99652927809466       -2.89071052656706       -1.37262600451070
H            3.58037544930213       -0.10223058039442       -0.42183243400410
