97
 energy: -148.260448305221 gnorm: 0.000041851825 xtb: 6.7.1 (edcfbbe)
C           -0.88018124823973       -0.72340132918132        4.02787790788536
C           -1.34123811179140        0.48224077476180        3.21800892849367
C           -0.16782658594879        1.33290382842270        2.73634025491386
C           -0.62581322302708        2.51078770819897        1.87826495943454
C            0.55452603781617        3.26820417349883        1.27311902493144
C            0.15219617313365        4.37371547538964        0.29451936124192
C           -0.64917669684286        3.92366386501022       -0.93007755173272
C            0.05582577490589        2.91138931248493       -1.83991401312824
N            0.04294116435098        1.56318990233111       -1.31859382268271
C           -1.11276107968006        0.83516089748348       -1.07919102549369
O           -2.24001259042909        1.24929834807277       -1.34859254765134
C           -0.66765547726327       -0.42342455364845       -0.50574710087132
C           -1.25245603662517       -1.57761909310406        0.02621885838135
C           -2.60726224737400       -1.94755745893308        0.25432681701263
C           -2.92263956649099       -3.18524141479054        0.85933086232953
C           -4.22958820074301       -3.54043658179721        1.10489573257315
C           -5.27120467639501       -2.69080488064458        0.76336938039396
C           -4.97745630769157       -1.46636193841307        0.14945451158113
N           -6.02226017605712       -0.59569917441322       -0.18824450214165
C           -6.08148904639159        0.74829247474519        0.11461219726022
C           -5.19032630233697        1.53345637600451        0.83569539934147
C           -5.50848359997747        2.86652984545565        1.01927257447043
C           -6.68694113709997        3.40817613370597        0.51293771631364
C           -7.59323101455814        2.62382142050365       -0.18245341175013
C           -7.29375635647880        1.28599833676069       -0.38136964643820
C           -7.98768746800700        0.19994556403442       -1.02599270005329
C           -9.19395123545954        0.10360633220451       -1.70040478681799
C           -9.55900966813563       -1.12280509217963       -2.23278675288323
C           -8.72836540273743       -2.23371145875613       -2.11313302018367
C           -7.51877690593722       -2.16077220208038       -1.44581500514387
C           -7.16202313509364       -0.94124721637539       -0.88286152224626
C           -3.66868137397892       -1.10046435277305       -0.10469963130313
S            0.03206082890916       -2.67421193185675        0.52364965839454
C            1.32834956897006       -1.57227995048691        0.06512619761735
C            2.67567800155950       -1.94596793838263        0.31003339864301
C            2.98270743782687       -3.20731257585599        0.87372987234958
C            4.28550048724052       -3.57789021760241        1.11522314705683
C            5.33420623138782       -2.72091892466649        0.81433271718023
C            5.04890188019925       -1.46975285974196        0.25094951244754
N            6.10023166853563       -0.58748263425653       -0.03407460371125
C            6.16507342703681        0.73523559428835        0.34828882042672
C            5.27924479234122        1.47604779114792        1.12084578298521
C            5.60368711813088        2.79352595940840        1.38744228888725
C            6.78303028835576        3.36105114303263        0.91234982573288
C            7.68422708723731        2.61874644135887        0.16572839807962
C            7.37864882099905        1.29739912133840       -0.11637510059171
C            8.06786915645247        0.24857184876603       -0.82496393906969
C            9.27331598201157        0.18667806656353       -1.50471441207544
C            9.63440315222903       -1.00913124429925       -2.10538721355166
C            8.80167864698322       -2.12332204480094       -2.04611033282594
C            7.59240055213784       -2.08443856345600       -1.37535788386144
C            7.23847327158529       -0.89646145281076       -0.74699667396223
C            3.74521462607009       -1.08758164652351       -0.00067847773047
C            0.75052906301532       -0.41440049839936       -0.47842792360135
C            1.20167871708494        0.85000583611642       -1.01856144134596
O            2.33077532652823        1.29904838559491       -1.21877034949946
H           -0.23438316499307       -1.35960096593572        3.42604976672210
H           -1.73404177310693       -1.31267475220911        4.35468826883466
H           -0.32328085831464       -0.40254473591810        4.90577008925858
H           -2.00841059832086        1.09848855693327        3.82578122999703
H           -1.90800339342905        0.13708674489325        2.34857454949518
H            0.50765053080967        0.70610105548408        2.14622296162317
H            0.39577524687156        1.70190108132941        3.59687311202412
H           -1.22717107143928        3.19485010506930        2.48227776482753
H           -1.26576083799759        2.12709254697380        1.08173273899070
H            1.21670903534620        2.56445183497399        0.76760871384313
H            1.13273285697766        3.72273047587431        2.08264860897056
H           -0.44528370020987        5.11770589055637        0.82820280230100
H            1.06476443437270        4.86636249601631       -0.05208140984182
H           -0.85872802989651        4.80853267392213       -1.53556988533265
H           -1.60986691296756        3.50399297754323       -0.62918380194844
H           -0.44620665984611        2.90388069017749       -2.81481564261006
H            1.10820208216801        3.17459791378643       -1.97974093687914
H           -2.11940208551633       -3.85121152649663        1.13553551255996
H           -4.44725871717108       -4.48610393923831        1.57814658318761
H           -6.29293071500121       -2.94566620311043        0.99646966533126
H           -4.27975042899603        1.12016424058297        1.23928297476695
H           -4.82763538753739        3.49959230127279        1.56820852154095
H           -6.89883909170807        4.45472101256976        0.67319300437423
H           -8.51290463233105        3.04376133499600       -0.55984315737620
H           -9.83143002659639        0.96709726484951       -1.81220002260875
H          -10.49651933768668       -1.21830527657364       -2.75958877639280
H           -9.03081633382580       -3.17079609012760       -2.55584007805780
H           -6.86909036682281       -3.01956272200830       -1.37795173517442
H           -3.46270125577905       -0.16584875300806       -0.60080074512902
H            2.17470236302605       -3.88158216924765        1.11420465447877
H            4.49510984349631       -4.54280804785462        1.55193282956997
H            6.35335500882604       -2.98966691413656        1.04285484128458
H            4.36915099517738        1.03974065877218        1.50129091607627
H            4.92715422968469        3.39300127332343        1.97787804818577
H            7.00014888665873        4.39426254867907        1.13861299490345
H            8.60508190574925        3.05790721162457       -0.18614327382015
H            9.91347595888891        1.05305158842122       -1.56826293288508
H           10.57104172550764       -1.07721107108611       -2.63799140603591
H            9.10215290835641       -3.03551058462350       -2.53931252973348
H            6.94092879023471       -2.94427839441239       -1.35262928712148
H            3.54776878959038       -0.13119288603095       -0.45715430969505
