  67
       -114.61897884
 O         -0.1933110277        5.5756504679       -1.2027619370
 S          0.0704063105        4.8350542256        0.0032987757
 O          0.3539275083        5.5638687846        1.2120560025
 C          1.2886196665        3.5731877427       -0.2929469486
 C          1.7635509135        2.8498133081        0.8089351280
 C          2.1768794581        1.5512490979        0.6560271948
 C          2.1113822308        0.9381223794       -0.6073097628
 N          2.3378112271       -0.4515746127       -0.7279328452
 C          3.5197621958       -1.0133090090       -0.2797598593
 C          4.6244128593       -0.2339384071        0.0747126436
 C          5.7788258132       -0.8238938158        0.5445554792
 C          5.8664514444       -2.2069124421        0.6687440094
 C          4.7982597993       -2.9994405306        0.2872281386
 C          3.6372330251       -2.4183710010       -0.1956127956
 O          2.6331531491       -3.2495067031       -0.5933170877
 C          1.5046438865       -2.6878678745       -1.1075919800
 C          0.5118154359       -3.5523809767       -1.5433136027
 C         -0.6799592396       -3.0544331584       -2.0373587897
 C         -0.8860318257       -1.6817833419       -2.0696350071
 C          0.0940081254       -0.8114382405       -1.6319743862
 C          1.3200005677       -1.2893879958       -1.1666101553
 C          1.7546845920        1.7023752916       -1.7291884489
 C          1.3375550925        3.0003164161       -1.5696539094
 C         -1.1815253028        3.6055885877        0.2957420039
 C         -1.2457841711        3.0309477703        1.5709447997
 C         -1.6995470538        1.7449481627        1.7273853283
 C         -2.0792638517        0.9944156347        0.6038564020
 N         -2.3472729779       -0.3881584966        0.7220634150
 C         -3.5479845491       -0.9131016497        0.2787568726
 C         -4.6283925173       -0.0998975988       -0.0740507125
 C         -5.8034807879       -0.6541343343       -0.5369341661
 C         -5.9361603506       -2.0338044819       -0.6552039007
 C         -4.8920526888       -2.8588874561       -0.2755933427
 C         -3.7106872783       -2.3136751232        0.1997809664
 O         -2.7319561548       -3.1756795777        0.5957736364
 C         -1.5838920915       -2.6488088598        1.1040077177
 C         -0.6176006981       -3.5431904350        1.5385537624
 C          0.5911097336       -3.0819540566        2.0275285484
 C          0.8403472757       -1.7165397130        2.0562292777
 C         -0.1131184981       -0.8166613430        1.6193815758
 C         -1.3549954633       -1.2569341979        1.1589012732
 C         -2.1272698918        1.6121306456       -0.6579228399
 C         -1.6768201197        2.8987563441       -0.8078071838
 H          1.7613961591        3.3279578465        1.7754215561
 H          2.5157654336        0.9774929823        1.5061615167
 H          4.5653853608        0.8373214617       -0.0334043568
 H          6.6197386688       -0.2041914497        0.8130820951
 H          6.7675056766       -2.6640662241        1.0446132159
 H          4.8452289205       -4.0749815650        0.3467047521
 H          0.6959818198       -4.6123558422       -1.4780106328
 H         -1.4471688462       -3.7306821694       -2.3786986496
 H         -1.8218198279       -1.2871810303       -2.4358040045
 H         -0.0909193245        0.2498806445       -1.6396639466
 H          1.8019443852        1.2531250401       -2.7105018435
 H          1.0241765189        3.5985990576       -2.4102096089
 H         -0.9147384539        3.6177965884        2.4127884465
 H         -1.7580051592        1.2942252780        2.7074426885
 H         -4.5347795798        0.9692777658        0.0303704034
 H         -6.6251338753       -0.0085225417       -0.8043804793
 H         -6.8532240631       -2.4632123983       -1.0248171792
 H         -4.9737368169       -3.9325555326       -0.3309791798
 H         -0.8352329042       -4.5969865456        1.4762995841
 H          1.3374337732       -3.7813607960        2.3685068673
 H          1.7893479844       -1.3507966177        2.4184336571
 H          0.1048115739        0.2384306265        1.6241684328
 H         -2.4826608765        1.0503427877       -1.5093287641
 H         -1.6610411840        3.3789183030       -1.7731763613
