  67
       -114.61897884
 O         -0.1933110277        5.5756504679       -1.2027619370
 S          0.0704063105        4.8350542256        0.0032987757
 O          0.3539275083        5.5638687846        1.2120560025
 C          1.2886196665        3.5731877427       -0.2929469486
 C          1.7635509135        2.8498133081        0.8089351280
 C          2.1768794581        1.5512490979        0.6560271948
 C          2.1113822308        0.9381223794       -0.6073097628
 N          2.3378112271       -0.4515746127       -0.7279328452
 C          3.5197621958       -1.0133090090       -0.2797598593
 C          4.6244128593       -0.2339384071        0.0747126436
 C          5.7788258132       -0.8238938158        0.5445554792
 C          5.8664514444       -2.2069124421        0.6687440094
 C          4.7982597993       -2.9994405306        0.2872281386
 C          3.6372330251       -2.4183710010       -0.1956127956
 O          2.6331531491       -3.2495067031       -0.5933170877
 C          1.5046438865       -2.6878678745       -1.1075919800
 C          0.5118154359       -3.5523809767       -1.5433136027
 C         -0.6799592396       -3.0544331584       -2.0373587897
 C         -0.8860318257       -1.6817833419       -2.0696350071
 C          0.0940081254       -0.8114382405       -1.6319743862
 C          1.3200005677       -1.2893879958       -1.1666101553
 C          1.7546845920        1.7023752916       -1.7291884489
 C          1.3375550925        3.0003164161       -1.5696539094
 C         -1.1815253028        3.6055885877        0.2957420039
 C         -1.2457841711        3.0309477703        1.5709447997
 C         -1.6995470538        1.7449481627        1.7273853283
 C         -2.0792638517        0.9944156347        0.6038564020
 N         -2.3472729779       -0.3881584966        0.7220634150
 C         -3.5479845491       -0.9131016497        0.2787568726
 C         -4.6283925173       -0.0998975988       -0.0740507125
 C         -5.8034807879       -0.6541343343       -0.5369341661
 C         -5.9361603506       -2.0338044819       -0.6552039007
 C         -4.8920526888       -2.8588874561       -0.2755933427
 C         -3.7106872783       -2.3136751232        0.1997809664
 O         -2.7319561548       -3.1756795777        0.5957736364
 C         -1.5838920915       -2.6488088598        1.1040077177
 C         -0.6176006981       -3.5431904350        1.5385537624
 C          0.5911097336       -3.0819540566        2.0275285484
 C          0.8403472757       -1.7165397130        2.0562292777
 C         -0.1131184981       -0.8166613430        1.6193815758
 C         -1.3549954633       -1.2569341979        1.1589012732
 C         -2.1272698918        1.6121306456       -0.6579228399
 C         -1.6768201197        2.8987563441       -0.8078071838
 H          1.7613961591        3.3279578465        1.7754215561
 H          2.5157654336        0.9774929823        1.5061615167
 H          4.5653853608        0.8373214617       -0.0334043568
 H          6.6197386688       -0.2041914497        0.8130820951
 H          6.7675056766       -2.6640662241        1.0446132159
 H          4.8452289205       -4.0749815650        0.3467047521
 H          0.6959818198       -4.6123558422       -1.4780106328
 H         -1.4471688462       -3.7306821694       -2.3786986496
 H         -1.8218198279       -1.2871810303       -2.4358040045
 H         -0.0909193245        0.2498806445       -1.6396639466
 H          1.8019443852        1.2531250401       -2.7105018435
 H          1.0241765189        3.5985990576       -2.4102096089
 H         -0.9147384539        3.6177965884        2.4127884465
 H         -1.7580051592        1.2942252780        2.7074426885
 H         -4.5347795798        0.9692777658        0.0303704034
 H         -6.6251338753       -0.0085225417       -0.8043804793
 H         -6.8532240631       -2.4632123983       -1.0248171792
 H         -4.9737368169       -3.9325555326       -0.3309791798
 H         -0.8352329042       -4.5969865456        1.4762995841
 H          1.3374337732       -3.7813607960        2.3685068673
 H          1.7893479844       -1.3507966177        2.4184336571
 H          0.1048115739        0.2384306265        1.6241684328
 H         -2.4826608765        1.0503427877       -1.5093287641
 H         -1.6610411840        3.3789183030       -1.7731763613
  67
       -114.61883227
 O         -0.1690873704        5.5417901779       -1.2010229250
 S          0.0712471668        4.8007327351        0.0096824367
 O          0.3330789725        5.5292917322        1.2234800842
 C          1.2970022931        3.5404822872       -0.2661718015
 C          1.7543035638        2.8165527467        0.8412256755
 C          2.1947442908        1.5261328988        0.6867582691
 C          2.1758125997        0.9281334839       -0.5834034071
 N          2.4542840570       -0.4531483456       -0.7139004324
 C          3.6738102196       -0.9649125863       -0.3122792014
 C          4.7491689296       -0.1396306417        0.0267249443
 C          5.9486747629       -0.6824355684        0.4368729582
 C          6.1100208560       -2.0623971133        0.5162676924
 C          5.0672662995       -2.8981731428        0.1572625213
 C          3.8600061957       -2.3645822266       -0.2636758204
 O          2.8780926950       -3.2342921147       -0.6344532930
 C          1.7022838581       -2.7173710113       -1.0872475830
 C          0.7248270564       -3.6174441405       -1.4826492524
 C         -0.5049027016       -3.1628198092       -1.9222023415
 C         -0.7608772064       -1.7971275291       -1.9515398793
 C          0.2025706409       -0.8911126688       -1.5538372876
 C          1.4591275364       -1.3264730112       -1.1292872751
 C          1.8201242445        1.6888476945       -1.7058642426
 C          1.3753219789        2.9781693633       -1.5447305172
 C         -1.1909365402        3.5757263304        0.2792456676
 C         -1.2881780295        3.0100121544        1.5550185102
 C         -1.7718141568        1.7340308493        1.7094961047
 C         -2.1473273991        0.9884712329        0.5829953163
 N         -2.4673367793       -0.3838601380        0.7084472873
 C         -3.6950799978       -0.8607486290        0.2883559547
 C         -4.7383395642       -0.0061027317       -0.0776884750
 C         -5.9441882317       -0.5153288034       -0.5115754265
 C         -6.1452498174       -1.8904055303       -0.5867333109
 C         -5.1370052626       -2.7543929832       -0.1976008565
 C         -3.9238486594       -2.2545019125        0.2471364858
 O         -2.9795115561       -3.1510690814        0.6495464050
 C         -1.7930396543       -2.6679844632        1.1114365810
 C         -0.8509834438       -3.5953369202        1.5290483413
 C          0.3899827054       -3.1768893263        1.9731611302
 C          0.6929794648       -1.8203482690        1.9839006015
 C         -0.2358823364       -0.8876541910        1.5670704076
 C         -1.5043297007       -1.2852922682        1.1396409369
 C         -2.1446292013        1.5923490525       -0.6847461727
 C         -1.6668826646        2.8701758174       -0.8322651103
 H          1.7194398827        3.2858370428        1.8113890917
 H          2.5231527969        0.9486858510        1.5387801247
 H          4.6310247971        0.9297456390       -0.0464907868
 H          6.7670721067       -0.0283198668        0.6928402648
 H          7.0474199199       -2.4828511371        0.8427322986
 H          5.1692372706       -3.9710452543        0.1886095005
 H          0.9500059611       -4.6701743956       -1.4287198726
 H         -1.2615335767       -3.8669548599       -2.2289324196
 H         -1.7227626634       -1.4377861248       -2.2848927632
 H         -0.0179944704        0.1638278544       -1.5578388755
 H          1.8861063238        1.2437802410       -2.6879707028
 H          1.0621300390        3.5757316777       -2.3858582412
 H         -0.9592793348        3.5942338233        2.3995347215
 H         -1.8531670902        1.2869655462        2.6895315104
 H         -4.5909956787        1.0597476276       -0.0068976785
 H         -6.7365931144        0.1614720621       -0.7894755488
 H         -7.0867934175       -2.2846979648       -0.9331319730
 H         -5.2709053854       -3.8239486790       -0.2230526613
 H         -1.1120266751       -4.6403901156        1.4878194178
 H          1.1192887151       -3.9018843466        2.2962587495
 H          1.6649071966       -1.4894839684        2.3176579270
 H          0.0211796876        0.1588895193        1.5580074026
 H         -2.4861749819        1.0284606734       -1.5406503922
 H         -1.6161065425        3.3425708973       -1.8001711004
  67
       -114.61582119
 O         -0.1812580492        5.2504463707       -1.2096691404
 S          0.0650651023        4.5125498356        0.0027959429
 O          0.3328249009        5.2431488845        1.2151291562
 C          1.3134474656        3.2809030680       -0.2710331810
 C          1.8759453565        2.6407496439        0.8366351060
 C          2.5154698331        1.4356999459        0.6816623580
 C          2.5900535548        0.8460171978       -0.5881534276
 N          3.1587604054       -0.4452766996       -0.7254972395
 C          4.5035995452       -0.6476300728       -0.4795412545
 C          5.3833110344        0.4120396227       -0.2501266425
 C          6.7198382266        0.1731857443       -0.0072793459
 C          7.2141087648       -1.1283260928        0.0091985883
 C          6.3629496078       -2.1913643216       -0.2329679235
 C          5.0186969941       -1.9640955275       -0.4810470863
 O          4.2260956778       -3.0464858336       -0.7253137157
 C          2.9090899987       -2.8294953783       -1.0009224786
 C          2.1166532240       -3.9387353209       -1.2522195156
 C          0.7697422675       -3.7849666948       -1.5253422962
 C          0.2098277425       -2.5117883013       -1.5397375715
 C          0.9857138482       -1.3996547904       -1.2821158306
 C          2.3486873471       -1.5307191638       -1.0136077817
 C          2.0694723861        1.5115647579       -1.7057236494
 C          1.4303867895        2.7167386038       -1.5442536601
 C         -1.2183921820        3.3176550574        0.2762881113
 C         -1.3509625538        2.7554595793        1.5489105140
 C         -2.0241369508        1.5688592482        1.7093031698
 C         -2.5636408787        0.9193700586        0.5911266057
 N         -3.1697709596       -0.3547753216        0.7264397536
 C         -4.5184821713       -0.5176420684        0.4734779653
 C         -5.3669593692        0.5675730450        0.2444993552
 C         -6.7085547289        0.3678646659       -0.0042281860
 C         -7.2399497537       -0.9193875735       -0.0276040313
 C         -6.4204957980       -2.0070838841        0.2131873987
 C         -5.0711536751       -1.8193570794        0.4674039326
 O         -4.3103874176       -2.9243036877        0.7093719348
 C         -2.9906031986       -2.7459006855        0.9972464934
 C         -2.2318236216       -3.8781459966        1.2506529377
 C         -0.8839359008       -3.7637259061        1.5367588310
 C         -0.2883514488       -2.5065314619        1.5620770615
 C         -1.0298426901       -1.3720881350        1.3013491802
 C         -2.3934811740       -1.4631619610        1.0196446946
 C         -2.4728868486        1.5084793337       -0.6780690207
 C         -1.7995103814        2.6950067194       -0.8318604730
 H          1.7836430615        3.1105897331        1.8024729344
 H          2.9435421956        0.9202891215        1.5292566287
 H          5.0032061647        1.4209355621       -0.2714488250
 H          7.3844414342        1.0044814263        0.1672030420
 H          8.2590136283       -1.3106627784        0.2018214888
 H          6.7194708387       -3.2089357065       -0.2381223886
 H          2.5794743792       -4.9123041975       -1.2261983153
 H          0.1580646956       -4.6503790941       -1.7213714399
 H         -0.8413796407       -2.3883783854       -1.7463308212
 H          0.5384870414       -0.4187094370       -1.2761582420
 H          2.1723244836        1.0627552285       -2.6828622293
 H          1.0088537516        3.2498610836       -2.3811119353
 H         -0.9146223785        3.2756437577        2.3863284088
 H         -2.1403447723        1.1227379774        2.6861727386
 H         -4.9585058041        1.5652172385        0.2719125448
 H         -7.3486285103        1.2181961937       -0.1782877237
 H         -8.2890505376       -1.0706485284       -0.2239982611
 H         -6.8059816810       -3.0139925924        0.2132235871
 H         -2.7215993859       -4.8380906018        1.2155161470
 H         -0.2984793881       -4.6468515023        1.7340457356
 H          0.7638415472       -2.4139319151        1.7793024068
 H         -0.5547158471       -0.4044126384        1.3031969065
 H         -2.9164887131        1.0068816650       -1.5259888588
 H         -1.6950838321        3.1637938100       -1.7970015516
  67
       -114.61563558
 O         -0.1832924873        5.1771897782       -1.2076614222
 S          0.0631616094        4.4369686369        0.0035126774
 O          0.3291526367        5.1659126065        1.2175495475
 C          1.3200055820        3.2146125996       -0.2707177805
 C          1.9027679259        2.5916432597        0.8357258217
 C          2.5825510930        1.4089265978        0.6779780384
 C          2.6771016971        0.8255675598       -0.5929250307
 N          3.3001928190       -0.4404464296       -0.7349262830
 C          4.6566783655       -0.5814697098       -0.5123541328
 C          5.4911071833        0.5171446333       -0.2989005092
 C          6.8408938948        0.3392977578       -0.0777773623
 C          7.3932919540       -0.9388013820       -0.0667713025
 C          6.5872142584       -2.0396143837       -0.2922702984
 C          5.2301180580       -1.8737655786       -0.5193682353
 O          4.4829456606       -2.9909813405       -0.7485507364
 C          3.1527583258       -2.8342690951       -0.9994777837
 C          2.4051101900       -3.9785477663       -1.2355892564
 C          1.0488361042       -3.8847322907       -1.4854935052
 C          0.4310420730       -2.6376635434       -1.4899372973
 C          1.1630547191       -1.4916009853       -1.2484174977
 C          2.5339472672       -1.5619106561       -1.0041694811
 C          2.1291191114        1.4721833162       -1.7083309673
 C          1.4498595750        2.6551295877       -1.5440530227
 C         -1.2263457874        3.2479239187        0.2736319014
 C         -1.3618082950        2.6795787064        1.5427048169
 C         -2.0726400285        1.5147522344        1.7009515986
 C         -2.6491926573        0.8958809187        0.5841150555
 N         -3.3084442490       -0.3522155595        0.7213783425
 C         -4.6716290932       -0.4496218304        0.5192872745
 C         -5.4743800025        0.6746820861        0.3173243599
 C         -6.8321697307        0.5394204908        0.1174308780
 C         -7.4251810769       -0.7211475427        0.1167048785
 C         -6.6511606050       -1.8466167678        0.3311806274
 C         -5.2859130620       -1.7239704878        0.5371368486
 O         -4.5712883077       -2.8633912318        0.7575016457
 C         -3.2338619242       -2.7491759968        0.9898190315
 C         -2.5197361416       -3.9158245443        1.2200807709
 C         -1.1579519684       -3.8644777035        1.4506191725
 C         -0.5000785105       -2.6372810387        1.4411000716
 C         -1.1980800174       -1.4695127864        1.2055657748
 C         -2.5743915986       -1.4964191311        0.9818864056
 C         -2.5484014406        1.4888764942       -0.6818643340
 C         -1.8351491522        2.6526679527       -0.8338829842
 H          1.7981076853        3.0583328064        1.8018372619
 H          3.0307296366        0.9077369911        1.5236790372
 H          5.0652439139        1.5078772927       -0.3156570392
 H          7.4702547681        1.1998503201        0.0847658009
 H          8.4482905557       -1.0732562517        0.1095205940
 H          6.9890239668       -3.0401379390       -0.3003952236
 H          2.9110011265       -4.9306111224       -1.2167187502
 H          0.4724853781       -4.7769941535       -1.6689169663
 H         -0.6273021821       -2.5609931303       -1.6812965926
 H          0.6738672868       -0.5307319473       -1.2376020018
 H          2.2439693881        1.0275682068       -2.6859944049
 H          1.0089798412        3.1748999864       -2.3793446081
 H         -0.8999623423        3.1784314865        2.3793691926
 H         -2.1910644549        1.0627635317        2.6748141091
 H         -5.0176896791        1.6516715454        0.3269600544
 H         -7.4366949586        1.4193265266       -0.0354687099
 H         -8.4866012890       -0.8219781929       -0.0424898284
 H         -7.0842604513       -2.8339541688        0.3472204606
 H         -3.0560844310       -4.8512537861        1.2131570105
 H         -0.6077467504       -4.7736313987        1.6308474893
 H          0.5627771302       -2.5945110379        1.6173800673
 H         -0.6787164522       -0.5248584541        1.1836429695
 H         -3.0187635718        1.0101226071       -1.5285004677
 H         -1.7247932316        3.1258671566       -1.7962363255
  67
       -114.61526659
 O         -0.1741460019        5.0217929963       -1.2105541700
 S          0.0630766083        4.2842931710        0.0046239049
 O          0.3214102223        5.0158327706        1.2190563793
 C          1.3347083614        3.0757012207       -0.2576519103
 C          1.9656888354        2.5033687584        0.8489947222
 C          2.7155106184        1.3622179779        0.6972204911
 C          2.8299292504        0.7702962577       -0.5675763810
 N          3.5459690856       -0.4454214445       -0.7160937662
 C          4.9204966508       -0.4710885324       -0.5849055047
 C          5.6689120259        0.6847681796       -0.3550427056
 C          7.0404137980        0.6183572737       -0.2295277495
 C          7.7031875667       -0.6039667869       -0.3371436698
 C          6.9841835713       -1.7579366254       -0.5832707226
 C          5.6041788275       -1.7056294927       -0.7119604389
 O          4.9460356767       -2.8689441243       -0.9718518151
 C          3.5922827244       -2.8269812589       -1.1082960108
 C          2.9316206851       -4.0183936819       -1.3689461081
 C          1.5559582250       -4.0374952254       -1.4986709109
 C          0.8282617240       -2.8560237840       -1.3566706000
 C          1.4727032295       -1.6649142995       -1.0948852254
 C          2.8630926420       -1.6180877001       -0.9774406745
 C          2.2168409729        1.3590857588       -1.6815741564
 C          1.4715166416        2.5020349173       -1.5237026841
 C         -1.2425570626        3.1124833475        0.2672986068
 C         -1.4010069920        2.5477153438        1.5344678132
 C         -2.1809497859        1.4279414088        1.6933055187
 C         -2.8048879986        0.8518186699        0.5788320909
 N         -3.5572877545       -0.3413591128        0.7272555523
 C         -4.9308595137       -0.3322801604        0.5639012502
 C         -5.6412335509        0.8425713374        0.3169526716
 C         -7.0120177352        0.8127719523        0.1565732379
 C         -7.7074369166       -0.3882356913        0.2452085450
 C         -7.0240884046       -1.5616177606        0.5090699086
 C         -5.6480907769       -1.5439230376        0.6728671338
 O         -5.0287131830       -2.7277523786        0.9492135473
 C         -3.6756170158       -2.7193283870        1.1189863416
 C         -3.0560770376       -3.9281633962        1.3946668879
 C         -1.6836385438       -3.9855684931        1.5587133477
 C         -0.9233195263       -2.8277149712        1.4361366467
 C         -1.5296883197       -1.6181893761        1.1587607396
 C         -2.9137413245       -1.5345230896        1.0069312295
 C         -2.6670873196        1.4353577477       -0.6873652984
 C         -1.8851480039        2.5547384750       -0.8399029704
 H          1.8489738557        2.9796368792        1.8090634711
 H          3.2074040087        0.9027613396        1.5421321569
 H          5.1591489469        1.6323844781       -0.2828901253
 H          7.6021168396        1.5213088435       -0.0505449834
 H          8.7755378232       -0.6501819955       -0.2369596932
 H          7.4707801068       -2.7148567839       -0.6843795553
 H          3.5195542780       -4.9173782938       -1.4633346606
 H          1.0473087356       -4.9656645681       -1.7027882936
 H         -0.2463555105       -2.8710178132       -1.4444544784
 H          0.9046918707       -0.7558944913       -0.9756026096
 H          2.3372981390        0.9022166884       -2.6528980589
 H          0.9872719014        2.9813498684       -2.3590279992
 H         -0.9063436905        3.0157720634        2.3701566196
 H         -2.3200077106        0.9797994429        2.6662204735
 H         -5.1054457296        1.7765898271        0.2589605744
 H         -7.5433937203        1.7314929268       -0.0351705639
 H         -8.7777661939       -0.4080102771        0.1175487765
 H         -7.5375092754       -2.5055937259        0.5969100403
 H         -3.6706861441       -4.8105433255        1.4733037088
 H         -1.2074188443       -4.9283384776        1.7744205460
 H          0.1482258355       -2.8697290682        1.5500725485
 H         -0.9339010091       -0.7256230850        1.0533122179
 H         -3.1673486787        0.9868543568       -1.5333128861
 H         -1.7502688467        3.0233933827       -1.8012703301
