  55
  -88.6961013136000       0.262082295111837      !
 N         -1.5407984736       -6.0016953467        0.0198300365
 C         -1.8640840488       -4.8916368764        0.0188385722
 C         -2.2397813967       -3.5531310661        0.0199938249
 C         -3.6147331685       -3.1920886911        0.0209728607
 C         -4.0044664917       -1.8866702040        0.0167641376
 C         -3.0191730914       -0.8657938733        0.0104084825
 C         -1.6345008848       -1.2437128530        0.0120789322
 C         -1.2411331083       -2.5400689289        0.0165452351
 C         -0.7529520480       -0.0010081227        0.0018196134
 C         -1.8024645257        1.1015347857       -0.0074809766
 C         -1.5987092031        2.4408966203       -0.0178574626
 C         -2.7320645542        3.3007183088       -0.0216647987
 C         -2.5519487224        4.6793226858       -0.0299305921
 N         -2.3931584262        5.8245800162       -0.0375413755
 C         -4.0413115199        2.7471488465       -0.0157532852
 C         -4.2405998866        1.3993963819       -0.0058229453
 C         -3.1193748236        0.5300330016       -0.0007172714
 C          0.0730468870        0.0644416944        1.2527638004
 C         -0.5678083157        0.0727259388        2.4835232245
 C          0.1497628973        0.1242986070        3.6631294267
 C          1.5377189729        0.1663178739        3.6199765484
 C          2.1951106412        0.1582354409        2.4102063474
 C          1.4751102723        0.1087465122        1.2082032013
 N          2.1397773994        0.1056361482        0.0003759582
 C          3.5666511728        0.1359153943       -0.0002052314
 C          4.2795799443       -1.0556894973        0.0100748200
 C          5.6631771207       -1.0229032654        0.0089887462
 C          6.3303094699        0.1911201572       -0.0022462144
 C          5.6151752618        1.3775866360       -0.0123929292
 C          4.2314202701        1.3551711068       -0.0114854422
 C          1.4749084685        0.0804585362       -1.2070989792
 C          2.1947192635        0.0994261316       -2.4100635310
 C          1.5371704774        0.0760076759       -3.6195324105
 C          0.1491971455        0.0335747060       -3.6614567941
 C         -0.5682411329        0.0138839126       -2.4808417949
 C          0.0728175781        0.0367899923       -1.2503716791
 H         -4.3474956215       -3.9860073313        0.0243150500
 H         -5.0503844844       -1.6203962016        0.0169016720
 H         -0.1987368191       -2.8252789271        0.0165138145
 H         -0.6077326497        2.8718842013       -0.0225312494
 H         -4.8800439518        3.4281935691       -0.0191314436
 H         -5.2377683112        0.9864849061       -0.0014330599
 H         -1.6465432083        0.0379034109        2.5057471694
 H         -0.3660660941        0.1311974914        4.6102793913
 H          2.1078044540        0.2057033958        4.5352232416
 H          3.2733976949        0.1912694575        2.3842743739
 H          3.7469590179       -1.9952807905        0.0188643469
 H          6.2183565091       -1.9483745338        0.0170378189
 H          7.4092451651        0.2126447167       -0.0031058218
 H          6.1330375707        2.3244297686       -0.0216262247
 H          3.6615306563        2.2726717684       -0.0201540663
 H          3.2730011762        0.1326415292       -2.3851418652
 H          2.1072393263        0.0907026540       -4.5355611144
 H         -0.3667036811        0.0148781187       -4.6083959053
 H         -1.6469824617       -0.0210945235       -2.5019382259
  55
  -88.6956510600000       0.162747923316748      !
 N         -1.1867147472       -5.9104306579        0.0294322745
 C         -1.5784743925       -4.8224595101        0.0206005193
 C         -2.0337532638       -3.5089838275        0.0127668197
 C         -3.4274376185       -3.2280355289        0.0162789319
 C         -3.8919745894       -1.9474820321        0.0098761900
 C         -2.9679789400       -0.8707375952        0.0011780108
 C         -1.5643453323       -1.1685833352       -0.0008662849
 C         -1.0960455208       -2.4395866637        0.0035859745
 C         -0.7560865037        0.1254700153       -0.0039563961
 C         -1.8660873855        1.1633943702       -0.0041053473
 C         -1.7408109662        2.5127736730       -0.0051970273
 C         -2.9220383682        3.3052140934       -0.0079781388
 C         -2.8233763247        4.6922706822       -0.0091180410
 N         -2.7345214963        5.8449360969       -0.0097881324
 C         -4.1970667683        2.6769301768       -0.0102056240
 C         -4.3181263064        1.3197483471       -0.0075624274
 C         -3.1484212939        0.5170857035       -0.0033682727
 C          0.0697992515        0.2005828393        1.2462699821
 C         -0.5685708743        0.2797389702        2.4756372357
 C          0.1517082280        0.3147714722        3.6541926503
 C          1.5395066127        0.2721235685        3.6108482578
 C          2.1942393555        0.1931451022        2.4021351224
 C          1.4716576568        0.1500507571        1.2015682184
 N          2.1338475045        0.0757335219       -0.0061774458
 C          3.5551990767       -0.0413483794       -0.0017740698
 C          4.1380153048       -1.2857162882        0.1989635896
 C          5.5171538434       -1.4007834726        0.2072339013
 C          6.3098128202       -0.2811527946        0.0156084479
 C          5.7248226532        0.9586965227       -0.1846690297
 C          4.3467642917        1.0840517656       -0.1933609822
 C          1.4702434875        0.1354323107       -1.2139678508
 C          2.1877492859        0.1285879338       -2.4182221535
 C          1.5303639801        0.2075084561       -3.6256093438
 C          0.1443195098        0.2894677900       -3.6646323553
 C         -0.5724466723        0.2765026710       -2.4834849623
 C          0.0684579232        0.1985164868       -1.2553516331
 H         -4.1130361023       -4.0628997294        0.0237833355
 H         -4.9515927304       -1.7424856736        0.0125311262
 H         -0.0389808466       -2.6644085643        0.0003001475
 H         -0.7762105024        2.9998137046       -0.0044951262
 H         -5.0736141458        3.3084468131       -0.0135014823
 H         -5.2897782385        0.8499166975       -0.0087069522
 H         -1.6473418715        0.3115968536        2.4980892414
 H         -0.3620559184        0.3754675396        4.6005102620
 H          2.1119087911        0.3029426053        4.5248995231
 H          3.2726668785        0.1684198768        2.3764863915
 H          3.5091832989       -2.1510480853        0.3478667080
 H          5.9701856008       -2.3676981676        0.3632895018
 H          7.3848223527       -0.3746504820        0.0226871810
 H          6.3405379609        1.8324482680       -0.3331348799
 H          3.8779938086        2.0450661429       -0.3464880725
 H          3.2642225144        0.0596184552       -2.3975942772
 H          2.0994073376        0.2038450045       -4.5422733751
 H         -0.3712668290        0.3539700403       -4.6097295391
 H         -1.6507056998        0.3236266022       -2.5028244044
  55
  -88.6956311374000       0.159352786678642      !
 N         -2.4236870209       -6.1413950539       -0.0095619061
 C         -2.5655434339       -4.9942493032       -0.0058054899
 C         -2.7303803248       -3.6133018281       -0.0033360105
 C         -4.0345195704       -3.0482503390       -0.0096654602
 C         -4.2216559974       -1.6983861199       -0.0093454341
 C         -3.0925271642       -0.8400123477       -0.0036009558
 C         -1.7794642351       -1.4221970065        0.0031792277
 C         -1.5892663136       -2.7644875771        0.0035199703
 C         -0.7238378883       -0.3328633486        0.0031015196
 C         -1.5945790433        0.9223695501        0.0015931286
 C         -1.1890627256        2.2146664490        0.0093996089
 C         -2.1776451693        3.2367997905        0.0090635458
 C         -1.7839004682        4.5699183172        0.0179964434
 N         -1.4375865235        5.6729765158        0.0254216269
 C         -3.5558179090        2.8875675564        0.0002989877
 C         -3.9564801652        1.5856398974       -0.0061395781
 C         -2.9810939865        0.5551512015       -0.0039509079
 C          0.1060466955       -0.3313238428        1.2532094677
 C         -0.5026700600       -0.5585379392        2.4787104471
 C          0.2101314542       -0.4637957140        3.6588816074
 C          1.5536216125       -0.1134647622        3.6217351531
 C          2.1792667707        0.1149067669        2.4162023056
 C          1.4720563335       -0.0070739035        1.2125154046
 N          2.1067021062        0.1924781798        0.0036836331
 C          3.4724183496        0.6008883813       -0.0058228414
 C          4.4811009234       -0.3272888936        0.2220303046
 C          5.8023200324        0.0834448400        0.2112787778
 C          6.1164413382        1.4116418433       -0.0271938880
 C          5.1084689978        2.3334225493       -0.2575861562
 C          3.7839052235        1.9322911274       -0.2479066234
 C          1.4784153166       -0.0438790878       -1.2017636633
 C          2.2074406394       -0.0059752315       -2.3981230384
 C          1.5888316757       -0.2585014964       -3.6023800020
 C          0.2330587012       -0.5575973392       -3.6441021105
 C         -0.4937616961       -0.5975320305       -2.4692944677
 C          0.1086194848       -0.3479128305       -1.2450044657
 H         -4.8792645584       -3.7217071179       -0.0146811478
 H         -5.2149583268       -1.2765307600       -0.0138834246
 H         -0.6021237400       -3.2037941029        0.0066291882
 H         -0.1445596158        2.4916972538        0.0177451270
 H         -4.2817479799        3.6877920699       -0.0002349737
 H         -5.0047332642        1.3287797433       -0.0119288899
 H         -1.5530302622       -0.8066558761        2.4980871217
 H         -0.2789358480       -0.6480518799        4.6023173319
 H          2.1146681062       -0.0172567379        4.5383774675
 H          3.2218528174        0.3916301984        2.3981398910
 H          4.2227766598       -1.3601254224        0.4043594360
 H          6.5859971397       -0.6367881844        0.3890798172
 H          7.1479732499        1.7283454266       -0.0334269869
 H          5.3498356373        3.3685962672       -0.4430583240
 H          2.9900649234        2.6424498402       -0.4256197599
 H          3.2630236840        0.2163479044       -2.3727128767
 H          2.1651624388       -0.2251974750       -4.5138977484
 H         -0.2520506432       -0.7563587405       -4.5866607122
 H         -1.5490407156       -0.8232942782       -2.4920851813
  55
  -88.6952957784000       0.111747891426165      !
 N         -2.1829945479       -6.1304901383        0.0429748417
 C         -2.3738398293       -4.9905166271        0.0355088601
 C         -2.5979639111       -3.6182643439        0.0261829897
 C         -3.9250680985       -3.1095131076        0.0160320110
 C         -4.1699582675       -1.7690736040        0.0061644798
 C         -3.0787163106       -0.8627892990        0.0057518470
 C         -1.7423702888       -1.3886428226        0.0159429487
 C         -1.4942703986       -2.7210499310        0.0260662631
 C         -0.7327788461       -0.2540224687        0.0096648748
 C         -1.6563161012        0.9612531042       -0.0014903568
 C         -1.3066735104        2.2698243187       -0.0137177760
 C         -2.3384233681        3.2486874944       -0.0306038714
 C         -2.0033678585        4.5978266040       -0.0461781441
 N         -1.7076386834        5.7155939202       -0.0601646720
 C         -3.7003945058        2.8410550025       -0.0339146292
 C         -4.0452557698        1.5232148334       -0.0211855872
 C         -3.0264754944        0.5357281325       -0.0052167096
 C          0.0988389838       -0.2376004410        1.2583358870
 C         -0.5169896777       -0.4152708671        2.4887522826
 C          0.2062825101       -0.3575745723        3.6649116345
 C          1.5726182641       -0.1114159053        3.6187617512
 C          2.2048223082        0.0698339253        2.4088968995
 C          1.4800835467        0.0083680898        1.2106939615
 N          2.1213441696        0.1760038657        0.0015762366
 C          3.5101145770        0.5038240632       -0.0013415946
 C          3.8963408645        1.8355717550        0.0680649850
 C          5.2426109650        2.1571590321        0.0630362781
 C          6.1968398775        1.1556406260       -0.0105716955
 C          5.8073554579       -0.1723232144       -0.0786519001
 C          4.4637129185       -0.5037881822       -0.0741745556
 C          1.4743522545        0.0049714118       -1.2039487361
 C          2.1887466875        0.0801551941       -2.4075903985
 C          1.5503756023       -0.1091277370       -3.6128653087
 C          0.1874381186       -0.3749562499       -3.6493749022
 C         -0.5275990892       -0.4365974484       -2.4685274416
 C          0.0942984268       -0.2495789769       -1.2425960628
 H         -4.7401660151       -3.8186021482        0.0159841838
 H         -5.1804613852       -1.3902051694       -0.0023978900
 H         -0.4891866817       -3.1176725964        0.0348977920
 H         -0.2748010089        2.5909629843       -0.0121056125
 H         -4.4596960514        3.6095065719       -0.0473865590
 H         -5.0815041411        1.2215766497       -0.0243805037
 H         -1.5803598943       -0.5991101276        2.5145445875
 H         -0.2895491862       -0.5002277802        4.6121335137
 H          2.1458933211       -0.0622497602        4.5315054700
 H          3.2670972302        0.2570895190        2.3798817550
 H          3.1428830325        2.6072741551        0.1252475602
 H          5.5433291070        3.1922549849        0.1161268699
 H          7.2455661526        1.4102037216       -0.0153795563
 H          6.5493959169       -0.9539068494       -0.1359164810
 H          4.1461535535       -1.5350169313       -0.1267141152
 H          3.2473662082        0.2873840599       -2.3872137808
 H          2.1159104988       -0.0490567482       -4.5297608369
 H         -0.3131741891       -0.5248423182       -4.5929353238
 H         -1.5897497122       -0.6284104631       -2.4872320419
  55
  -88.6952765721000       0.109499650455748      !
 N         -2.6021235395       -6.1463840728        0.0400270864
 C         -2.7118141959       -4.9956323797        0.0335093565
 C         -2.8272342378       -3.6095519129        0.0219645557
 C         -4.1118897423       -3.0015958968        0.0091119281
 C         -4.2539740732       -1.6463006889       -0.0013465113
 C         -3.0969352791       -0.8261778218        0.0008516975
 C         -1.8036803478       -1.4511856369        0.0132849703
 C         -1.6585992030       -2.7994636747        0.0234877778
 C         -0.7136120456       -0.3978645376        0.0119215447
 C         -1.5423798150        0.8864363919        0.0043910658
 C         -1.0956038504        2.1650350287       -0.0027801028
 C         -2.0500576488        3.2187437572       -0.0232630124
 C         -1.6125711584        4.5381317796       -0.0365614632
 N         -1.2328498284        5.6302366950       -0.0560697637
 C         -3.4389002207        2.9143979214       -0.0338014692
 C         -3.8812055564        1.6260729241       -0.0245446039
 C         -2.9399352962        0.5644987899       -0.0064291999
 C          0.1235344056       -0.4238920457        1.2571327463
 C         -0.4650979560       -0.7074253487        2.4802816903
 C          0.2625260183       -0.6462044589        3.6540823687
 C          1.5997418660       -0.2734141632        3.6140670446
 C          2.2044568633        0.0163223642        2.4108968760
 C          1.4819657839       -0.0684782775        1.2134843018
 N          2.0954948818        0.1905966128        0.0050921437
 C          3.4297932538        0.6934795003       -0.0043599844
 C          4.5084762845       -0.1701865887        0.1411159174
 C          5.7954610671        0.3381154562        0.1343110423
 C          6.0058723192        1.6991610184       -0.0179426287
 C          4.9282458523        2.5563908996       -0.1666497808
 C          3.6372962839        2.0573279557       -0.1608247579
 C          1.4743882410       -0.0664211614       -1.1992733315
 C          2.1984693106        0.0028353077       -2.3967539030
 C          1.5885435945       -0.2804978397       -3.5987198863
 C          0.2475373939       -0.6406427791       -3.6356449527
 C         -0.4768178659       -0.7030501333       -2.4599108884
 C          0.1163628616       -0.4218765485       -1.2384211957
 H         -4.9785675201       -3.6466049228        0.0082548888
 H         -5.2327598949       -1.1918268090       -0.0106576361
 H         -0.6864009845       -3.2709631271        0.0321706423
 H         -0.0429867350        2.4088484540        0.0066702937
 H         -4.1383301579        3.7376044207       -0.0496140529
 H         -4.9371527687        1.4031815296       -0.0326424952
 H         -1.5106147196       -0.9747995318        2.5043271449
 H         -0.2107029410       -0.8764365705        4.5955189903
 H          2.1722941748       -0.2084462254        4.5262770129
 H          3.2427772958        0.3084614244        2.3890502092
 H          4.3308622195       -1.2294587276        0.2569285515
 H          6.6339720347       -0.3319786916        0.2473605201
 H          7.0110186843        2.0918172579       -0.0205582109
 H          5.0879942710        3.6171751240       -0.2840830711
 H          2.7901739098        2.7179543435       -0.2725872185
 H          3.2426943469        0.2741202981       -2.3731325695
 H          2.1598952751       -0.2234250574       -4.5121804526
 H         -0.2299667900       -0.8651301274       -4.5763312479
 H         -1.5227685346       -0.9688315369       -2.4812071657
  55
  -88.6952457451000       0.105985297820372      !
 N         -0.7850501578       -5.7820562719        0.0071192165
 C         -1.2568034005       -4.7263611790        0.0072994383
 C         -1.7995183491       -3.4466209948        0.0058284060
 C         -3.2081505909       -3.2544864040        0.0165253435
 C         -3.7525218351       -2.0057456428        0.0172967299
 C         -2.8992678699       -0.8720718834        0.0082181425
 C         -1.4802694015       -1.0811815973       -0.0013011562
 C         -0.9321625483       -2.3196968694       -0.0036581508
 C         -0.7561850168        0.2643583927       -0.0058515765
 C         -1.9274773796        1.2277632285       -0.0052586452
 C         -1.8895579175        2.5829869131       -0.0111687570
 C         -3.1188925216        3.2981384298       -0.0059641436
 C         -3.1092544083        4.6889119692       -0.0138112823
 N         -3.0893112518        5.8446499559       -0.0195207435
 C         -4.3510512126        2.5901385276        0.0066643786
 C         -4.3851911156        1.2277678815        0.0122470634
 C         -3.1668277651        0.5017199418        0.0057923907
 C          0.0700137917        0.3667928437        1.2425735277
 C         -0.5533184982        0.5585259274        2.4667065264
 C          0.1739407196        0.5848896791        3.6417167109
 C          1.5512309577        0.4095250940        3.6007929441
 C          2.1913128060        0.2171196603        2.3966333989
 C          1.4627155020        0.1932804613        1.1997742040
 N          2.1101782622        0.0215624519       -0.0061135804
 C          3.5110223568       -0.2462575532        0.0017647712
 C          3.9551074012       -1.5485092369        0.1878572286
 C          5.3139247334       -1.8117295747        0.1983171312
 C          6.2236751387       -0.7819345590        0.0238420696
 C          5.7769132764        0.5165994701       -0.1606686633
 C          4.4205990472        0.7897947477       -0.1717714772
 C          1.4612768582        0.1706940634       -1.2141086273
 C          2.1811111793        0.1383527916       -2.4160853124
 C          1.5389286974        0.3201599895       -3.6207835815
 C          0.1668625071        0.5329936289       -3.6582851017
 C         -0.5555326871        0.5388557239       -2.4799849908
 C          0.0696397315        0.3576042074       -1.2552289518
 H         -3.8396245327       -4.1311045357        0.0235963802
 H         -4.8229721813       -1.8683166112        0.0248819752
 H          0.1367416616       -2.4779701537       -0.0121005045
 H         -0.9579985557        3.1303900538       -0.0197095938
 H         -5.2663068513        3.1642101546        0.0116025523
 H         -5.3248759404        0.6971111087        0.0218540849
 H         -1.6250738231        0.6852934001        2.4896742907
 H         -0.3277533670        0.7378011843        4.5841714545
 H          2.1273491655        0.4255997891        4.5129159467
 H          3.2625888083        0.0898412056        2.3716240968
 H          3.2370594959       -2.3437094278        0.3240282917
 H          5.6590265129       -2.8237946962        0.3430037540
 H          7.2823874420       -0.9907099004        0.0330582588
 H          6.4842035718        1.3210262449       -0.2946299888
 H          4.0585743879        1.7978514469       -0.3119598558
 H          3.2466546813       -0.0298452799       -2.3960664802
 H          2.1091161405        0.2954212563       -4.5364434055
 H         -0.3357279006        0.6807850906       -4.6010920224
 H         -1.6254545263        0.6806408806       -2.5008210939
  55
  -88.6944710025000       4.668728052223738E-002 !
 N         -1.6206506751       -6.0199853352       -0.1739651889
 C         -1.9248842959       -4.9057736985       -0.1173160490
 C         -2.2827235303       -3.5628066041       -0.0775059851
 C         -3.6528419083       -3.1840111740       -0.0809176743
 C         -4.0257496683       -1.8739818878       -0.0502608571
 C         -3.0273443123       -0.8664649776       -0.0193335940
 C         -1.6474758917       -1.2622118894       -0.0125331758
 C         -1.2711012162       -2.5634062845       -0.0411435743
 C         -0.7501461324       -0.0316789407       -0.0047343203
 C         -1.7855883493        1.0850115576        0.0033629244
 C         -1.5641270200        2.4208505664        0.0479141794
 C         -2.6859752696        3.2945653647        0.0882152742
 C         -2.4853230458        4.6689004563        0.1529291546
 N         -2.3097591176        5.8090972579        0.2310782179
 C         -4.0023820861        2.7583489652        0.0739130009
 C         -4.2192545343        1.4141401481        0.0271357476
 C         -3.1095435868        0.5305355415       -0.0017896576
 C          0.0745119804        0.0496892590        1.2455513975
 C         -0.5700359835        0.0569071308        2.4746777566
 C          0.1362391204        0.2087138344        3.6520152039
 C          1.5141681607        0.3781760350        3.6053561271
 C          2.1759022684        0.3591785050        2.3980493186
 C          1.4719335748        0.1698219583        1.2001877354
 N          2.1435155860        0.1230996761       -0.0054724264
 C          3.5660355868        0.1790994200       -0.0018420751
 C          4.2978515206       -0.9123277840        0.4506099072
 C          5.6801632131       -0.8547416881        0.4560574914
 C          6.3313016426        0.2838939181        0.0100746427
 C          5.5994970844        1.3700625735       -0.4418002102
 C          4.2167017185        1.3230911503       -0.4482578642
 C          1.4801751785        0.0147507907       -1.2116158056
 C          2.1988352118       -0.0875434029       -2.4113331788
 C          1.5416186766       -0.1675562075       -3.6185945924
 C          0.1534580968       -0.1487743208       -3.6634621404
 C         -0.5636123046       -0.0833146621       -2.4847093041
 C          0.0776789289       -0.0148359145       -1.2557626416
 H         -4.3957467271       -3.9678682713       -0.1105874805
 H         -5.0681051806       -1.5942000771       -0.0548495474
 H         -0.2325397319       -2.8621596890       -0.0417747170
 H         -0.5676869995        2.8388988794        0.0604470972
 H         -4.8319402081        3.4498121502        0.1044344328
 H         -5.2215863531        1.0140394810        0.0192705921
 H         -1.6441395157       -0.0486286312        2.4958788480
 H         -0.3820128066        0.2132599581        4.5978242739
 H          2.0734685190        0.5280191593        4.5157948223
 H          3.2451461600        0.5006030207        2.3727412190
 H          3.7790920362       -1.7957027369        0.7932749651
 H          6.2473067540       -1.7032458667        0.8069287032
 H          7.4095659094        0.3248193088        0.0145302169
 H          6.1040475229        2.2590927572       -0.7879282488
 H          3.6355630551        2.1656763598       -0.7935598453
 H          3.2770852485       -0.1125124172       -2.3879283996
 H          2.1128854189       -0.2465941099       -4.5305331500
 H         -0.3623069669       -0.2011725008       -4.6091921377
 H         -1.6428107975       -0.0940061726       -2.5048038190
  55
  -88.6943686957000       4.189687466825104E-002 !
 N         -0.3954092303       -5.6438105680       -0.0062088475
 C         -0.9377770433       -4.6225877007       -0.0031973355
 C         -1.5616179731       -3.3804730443        0.0012788898
 C         -2.9793064267       -3.2746745969        0.0148603511
 C         -3.5980999632       -2.0611126118        0.0196322384
 C         -2.8161067859       -0.8771621031        0.0112660153
 C         -1.3874989342       -0.9995079138       -0.0006825358
 C         -0.7657668762       -2.2025599770       -0.0073975581
 C         -0.7478513503        0.3897007986       -0.0065426254
 C         -1.9739478502        1.2785042426       -0.0059273370
 C         -2.0212299201        2.6341065233       -0.0133990542
 C         -3.2922824318        3.2712653121       -0.0042327858
 C         -3.3718111747        4.6600435785       -0.0099473167
 N         -3.4350525184        5.8142244764       -0.0164777264
 C         -4.4783007037        2.4883853215        0.0127863238
 C         -4.4276053587        1.1264711350        0.0190413786
 C         -3.1666102705        0.4778610198        0.0091270712
 C          0.0803828792        0.5275508883        1.2376975563
 C         -0.5213128076        0.8056944041        2.4552263018
 C          0.2174475854        0.8398889036        3.6235688162
 C          1.5808185992        0.5783481332        3.5838304025
 C          2.1992156204        0.2969459341        2.3854633110
 C          1.4608929916        0.2723464389        1.1955299734
 N          2.0873113005        0.0223402477       -0.0080932800
 C          3.4411105299       -0.4248553813        0.0043873884
 C          3.7020435765       -1.7776629169        0.1759429575
 C          5.0115002487       -2.2254195993        0.1910597531
 C          6.0548694784       -1.3278656598        0.0374420256
 C          5.7913713724        0.0220586886       -0.1307308321
 C          4.4854358120        0.4790481539       -0.1476444795
 C          1.4569764176        0.2416916616       -1.2154158581
 C          2.1801427582        0.2043936988       -2.4143082474
 C          1.5552679444        0.4637563700       -3.6143171297
 C          0.1989067823        0.7601989916       -3.6483989666
 C         -0.5295469283        0.7684789737       -2.4732157468
 C          0.0779437488        0.5105420837       -1.2541507716
 H         -3.5562570622       -4.1880083174        0.0206450200
 H         -4.6749062220       -1.9891762294        0.0288445074
 H          0.3102351160       -2.2969117018       -0.0213588003
 H         -1.1253485306        3.2380954727       -0.0249490698
 H         -5.4273301365        3.0045843002        0.0206493494
 H         -5.3324051275        0.5384300408        0.0318069870
 H         -1.5839684339        0.9930565736        2.4805519931
 H         -0.2665304546        1.0628866590        4.5613225034
 H          2.1632234510        0.5972101969        4.4918684078
 H          3.2602791895        0.1022120304        2.3587892711
 H          2.8827906780       -2.4710845510        0.2963593749
 H          5.2121042847       -3.2775736128        0.3222464579
 H          7.0746916392       -1.6802839471        0.0494291298
 H          6.6033446006        0.7232985428       -0.2482446573
 H          4.2664090473        1.5291907610       -0.2752794223
 H          3.2339052091       -0.0263503348       -2.3958747605
 H          2.1270845150        0.4351428825       -4.5288313536
 H         -0.2891109757        0.9688570043       -4.5873380717
 H         -1.5896354600        0.9706211400       -2.4940932808
