62
 energy: -201.624251632851 gnorm: 0.000067326480 xtb: 6.7.1 (edcfbbe)
F           -1.06596530764695        1.78869245658098       -3.18692545946842
C           -0.56454506003433        1.22840185898494       -2.08364296494423
C            0.72958399063208        1.33972014150020       -1.74097631366011
F            1.66453784907214        2.01394395343350       -2.38959695407915
C            1.04761241296425        0.81545139212261       -0.34469461510401
C            2.44840022408856        0.21927085590636       -0.27460739226788
C            3.30167271855698        0.31180778934856        0.82740429312839
F            2.96404814559507        0.99851912147863        1.91237321726962
C            4.56622531498295       -0.27452984830536        0.84044819961879
F            5.32635683597444       -0.14911463367014        1.92138607339171
C            5.03178840306058       -0.97940078633868       -0.26340127329102
F            6.22924730372787       -1.54603411585957       -0.25251685979937
C            4.21247950191451       -1.07124715199262       -1.38292878327693
F            4.60998971223085       -1.74134460683417       -2.46127268339784
C            2.95742708592199       -0.47383749492853       -1.37568908533960
F            2.22478841145847       -0.60477064824263       -2.49152664443387
C            0.93373359173805        2.16827009732684        0.37390248189939
C            1.99692132259490        3.07643643210757        0.32366227137349
F            3.15676729468324        2.75028365753668       -0.25385393510190
C            1.91175376620035        4.36088883210016        0.85420270695358
F            2.96860865364709        5.16196340741043        0.78865541746093
C            0.72862640964601        4.80512216721070        1.43257573910980
F            0.63700061751893        6.02660729406651        1.93842116809144
C           -0.36065942184560        3.94062092193061        1.45716964746598
F           -1.51496662411839        4.32379141127110        1.99027828283174
C           -0.24997878639048        2.66304909271791        0.92193887272071
F           -1.34426688526639        1.89219696092238        0.99222263005237
C           -0.11575863589119       -0.26980848477617       -0.10853777655068
C            0.37729085473202       -1.60526119609615       -0.68891251221838
C           -0.03124977918361       -2.09605082763750       -1.92677209912159
F           -0.85857181102496       -1.37930840020529       -2.68729041014483
C            0.39306476158225       -3.32412454072439       -2.42717622153102
F           -0.03112464840893       -3.73183149521618       -3.61412266804980
C            1.26207786481582       -4.11607503190066       -1.68243931970312
F            1.68022803636937       -5.28418087627735       -2.14537684726987
C            1.68571221009464       -3.65626157620917       -0.43930040506557
F            2.52611281798880       -4.37695123530904        0.29831571249612
C            1.23843788896574       -2.42914348858145        0.03752794713864
F            1.68013495526126       -2.04520389158062        1.24656124594116
C           -0.56036139042502       -0.62087278896108        1.31975831686916
C           -0.18635864653937       -0.05519550911558        2.53830473449162
F            0.68377516965641        0.94785428750452        2.62969400233701
C           -0.69382425321976       -0.48082290210807        3.76733122474966
F           -0.28182742172111        0.13653701434460        4.87018283385856
C           -1.60700380805898       -1.52088518950885        3.84542596958164
F           -2.09477135965423       -1.92455628756515        5.01051706984521
C           -1.98678681078628       -2.12990050836717        2.65552567939161
F           -2.84792947973013       -3.14385083046806        2.65670319153313
C           -1.46317642397938       -1.68531758890505        1.44838840203431
F           -1.85795139881483       -2.35996421028801        0.36428586185139
B           -1.30658930817615        0.31313044708465       -1.09858793268331
C           -2.87456671262339        0.24146856738122       -1.13222287671033
C           -3.56626361904805        1.45426433844720       -1.01272465182041
F           -2.87866187433429        2.58797713227051       -0.84201070075369
C           -4.95106617443099        1.54841396565586       -1.06517486582577
F           -5.54844625464233        2.72841362706686       -0.91491088317130
C           -5.70983652686172        0.40355894303855       -1.29329259211621
F           -7.03472115687103        0.47296033121217       -1.34938830497891
C           -5.05616684161548       -0.80813891667558       -1.48724300248258
F           -5.75701306042276       -1.90850811830943       -1.75184363908211
C           -3.66645031946150       -0.87457643193692       -1.41211392394085
F           -3.10754932445425       -2.05254588511785       -1.68208559606296
