62
 energy: -201.532911639879 gnorm: 0.000052376652 xtb: 6.7.1 (edcfbbe)
F           -0.85309505054493       -0.73633066687885        3.80012824071190
C           -0.53773523828414       -0.38510824145836        2.57086451606854
C            0.70059222046697        0.27011006028444        2.34776487616026
F            1.62568587867649        0.46957256912770        3.28084637616338
C            0.98922079994431        0.60328378526906        0.90683902271251
C            0.68822491230845        2.07881344612803        0.61631415937711
C            0.76273305388967        2.61046413201590       -0.67436272397724
F            1.17409268626957        1.85657394430051       -1.69621475637147
C            0.45366491130879        3.93511511667948       -0.96307708748300
F            0.51913576609656        4.35672829454716       -2.22302064717092
C            0.06672665575422        4.80084581467728        0.05362210791252
F           -0.23051164493954        6.06457819497223       -0.20897055824054
C            0.00313825390236        4.30869845770206        1.35188685655111
F           -0.35077194665606        5.10504324510445        2.35333623289416
C            0.30473794065190        2.97382199367884        1.61655076180797
F            0.19060985368718        2.58723764655594        2.88641556686984
C            2.49469488443954        0.32466566835915        0.75793703152470
C            3.46965151271968        1.22867339638072        0.32707079343002
F            3.19699631253010        2.49351797312036        0.00267931506339
C            4.81958145629481        0.88482809782457        0.23817351989295
F            5.68087142799837        1.79539317668763       -0.19887516380576
C            5.26603209564601       -0.37595949057303        0.61258833675186
F            6.54468161602456       -0.70534145432098        0.51652262609780
C            4.33296813689683       -1.26950136149822        1.12737311881962
F            4.70307406817791       -2.47721250431067        1.54253612282602
C            2.99620694666725       -0.90333999166948        1.21324000562225
F            2.17752665389532       -1.79204735755677        1.79879223541977
C           -0.03853652536906       -0.39986884265277        0.10822111902042
C           -0.78461220606593        0.23544155998796       -1.05498128821969
C           -1.67427069077906        1.29244339590659       -0.81142185118479
F           -1.89679925245072        1.71876606061851        0.44634359102104
C           -2.39940275510795        1.94394245243058       -1.79949404421295
F           -3.19031339160177        2.96020270236609       -1.45819970446063
C           -2.30099179416964        1.53201797409151       -3.12397414123677
F           -2.98272318934778        2.14200159330502       -4.08216493975526
C           -1.49256014642661        0.43658313213694       -3.39805553553525
F           -1.40480837102274       -0.03218860636190       -4.63668253357949
C           -0.77021101634227       -0.20055316394312       -2.38835710525474
F           -0.09758238503241       -1.27554180505132       -2.79532919471522
C            0.68137864459788       -1.66680283089502       -0.33247540911636
C            1.79020479243209       -1.62934127084803       -1.18728282890267
F            2.21152215306046       -0.46591898310925       -1.69403816970012
C            2.48567763734255       -2.76352041119585       -1.58815311282514
F            3.54749424626148       -2.62922029650620       -2.37995739220370
C            2.08155826004675       -4.01996464785587       -1.15209465714313
F            2.73391703058965       -5.11132626703800       -1.52477862053602
C            0.97707163144406       -4.09825916523161       -0.31261367151820
F            0.55462282760066       -5.27844005743667        0.12850555919103
C            0.30637754644053       -2.94449791142203        0.08816928826074
F           -0.70810254869966       -3.13311797819561        0.93330991861259
B           -1.21762791193029       -0.70183676782036        1.26836187307827
C           -2.68533418657288       -1.06885527247315        1.04501039473579
C           -3.66849570842496       -0.74399471279839        2.01581626023849
F           -3.30582752869747       -0.05322677183633        3.09506335887575
C           -5.00220285747131       -1.08892945677702        1.88924910956053
F           -5.87649548550190       -0.76024293474571        2.83816825657876
C           -5.44475193782296       -1.77053522188697        0.75036868495856
F           -6.72403490233566       -2.09711099806434        0.60969560150582
C           -4.51619811987569       -2.09001099429520       -0.24844361880079
F           -4.91927454446294       -2.72993714295674       -1.34524805068081
C           -3.18941411170180       -1.74032641765728       -0.09174053338642
F           -2.33651765579202       -2.08744656806412       -1.07046130445590
