62
 energy: -201.630864844797 gnorm: 0.000050216147 xtb: 6.7.1 (edcfbbe)
F           -0.79007309002857       -0.90943699033934        3.78925180584341
C           -0.42628571609743       -0.52067590773301        2.56933013385583
C            0.70113734491144        0.17772278680858        2.34846262169535
F            1.59362645835094        0.53203911214529        3.26453348220684
C            0.99836279196110        0.56496955246472        0.91032340090735
C            0.65569451270013        2.03188555605286        0.65364283699303
C            0.74901424541802        2.57780233848405       -0.63046061342946
F            1.20493760597847        1.83680399058121       -1.64425480821257
C            0.41903919521486        3.89648256583074       -0.91816425717078
F            0.50686966818273        4.33105499257870       -2.17283108278045
C           -0.01286534309225        4.74339937818860        0.09658068440266
F           -0.33202391002910        6.00285718704151       -0.16276454772231
C           -0.10150809073601        4.23691684463700        1.38741401596835
F           -0.50391780037652        5.01608954735940        2.38418645162938
C            0.22068707296363        2.90559603307706        1.65159056929794
F            0.07039742561397        2.50741830093372        2.91103983532380
C            2.50787109008630        0.31997082944735        0.75467084729685
C            3.46242386298669        1.25298009962299        0.34011248909261
F            3.16454108972434        2.52022975084905        0.04883392542652
C            4.81993110557409        0.94330930700111        0.23858690448804
F            5.65746577611743        1.88313611259648       -0.18261858183505
C            5.29733662947501       -0.31371536720604        0.58457684314469
F            6.58240627529065       -0.61232009341595        0.47581124103174
C            4.38639926261789       -1.23704804797738        1.08399112991066
F            4.78456427623547       -2.44446015111944        1.47404127629557
C            3.04100483177473       -0.90417855387655        1.18293301229356
F            2.25464298693610       -1.83196904646480        1.75114303000311
C           -0.02467247750442       -0.41994551427564        0.08262194829577
C           -0.76948661507806        0.21668131692477       -1.08634133326730
C           -1.69937256364417        1.22577204829235       -0.80667681706021
F           -1.92638967986995        1.59322082489513        0.47020988852523
C           -2.45702147071848        1.87735510701897       -1.77019007877095
F           -3.29446278889313        2.84301533219193       -1.39596849727253
C           -2.34289769489031        1.50915269999477       -3.10587921328603
F           -3.05338643958967        2.11703928655025       -4.04425771901127
C           -1.48752844091361        0.46003469632129       -3.41673143812739
F           -1.38488243634276        0.03536351722376       -4.66972762348585
C           -0.73275097032032       -0.17572194107875       -2.42869846750014
F           -0.01187708093221       -1.20686001160536       -2.86480926985420
C            0.71451502424718       -1.67528022405993       -0.35938488696904
C            1.81662837239399       -1.66567123276626       -1.21730630674171
F            2.26915157782203       -0.51926653253392       -1.73104624287701
C            2.48106936774719       -2.82899880241064       -1.59350321197873
F            3.53951971329713       -2.74277239315730       -2.39440836600374
C            2.05287379208486       -4.06561652751389       -1.12325435337545
F            2.67855975439379       -5.17752891021394       -1.47970601396976
C            0.96021726277459       -4.10898180906965       -0.26289742795036
F            0.52607056379094       -5.26871975823294        0.21622140038959
C            0.32727638424602       -2.92836501969097        0.10861659501180
F           -0.67995933072789       -3.01974355527596        0.98699334313284
B           -1.13247801439058       -0.78789893189961        1.23770016187701
C           -2.65510223980757       -1.06948604224972        1.02706253133956
C           -3.59946704762625       -0.64487112887322        1.97026441804085
F           -3.20490092883961        0.04969486552225        3.02953854720322
C           -4.96270574889177       -0.88865330564506        1.82441905793256
F           -5.82202601058204       -0.46078026224561        2.74423633256937
C           -5.42816895255996       -1.58265475684085        0.71060637585962
F           -6.72351846194837       -1.82523819946126        0.56197638533690
C           -4.51829084441365       -2.01088284984522       -0.25405531056764
F           -4.94400066559866       -2.66026355566953       -1.33614238212142
C           -3.16664514230774       -1.74484976914549       -0.08473761960979
F           -2.32410091400891       -2.17163304568661       -1.03741147490087
