69
 energy: -107.548034895575 gnorm: 0.000068986783 xtb: 6.7.1 (edcfbbe)
C            8.54215295811746       -0.19339429666738        1.84436050208921
C            7.28816171267547       -0.40644346067588        1.05766039575027
C            6.16116351129543        0.30936803105645        1.20087476514560
C            5.01112233837450        0.02386710111054        0.38772465476114
C            3.82889402103872        0.72711233789137        0.48302859159846
C            2.72983793920956        0.39732658947683       -0.32777316775304
N            1.53810276504463        1.10991274133998       -0.22548125046453
C            1.42714580874487        2.50111840607853       -0.19627842186129
C            2.41177609719361        3.46144488280317       -0.30379195064909
C            2.02459623463720        4.79940443889497       -0.27350526539552
C            0.68663453693714        5.15827130326178       -0.14312290532626
C           -0.30903454561397        4.20071082804092       -0.05937904776389
C            0.05446124999267        2.85634451069960       -0.09915745974587
C           -0.68044882710336        1.63504391515820       -0.08479144176743
C           -2.02283080588626        1.32045582221496       -0.01925714900556
C           -2.42215198133366       -0.02431604665966        0.00583275324308
C           -1.45542880690781       -1.07531742979635       -0.01021590360433
C           -0.11266245022654       -0.75298545794970       -0.09500804753593
C            0.28676021280173        0.57522670777170       -0.15846467395561
C           -1.86123646131684       -2.53077303166900        0.07492563279800
C           -1.33552528524521       -3.26698805367186       -1.17413002176948
C           -1.24095879878608       -3.14374256118351        1.34697404861507
C           -3.36192020922224       -2.70604358147745        0.13975527968272
C           -3.90742775558554       -3.98071609336784        0.21481715142365
C           -5.27335303438235       -4.19018823990250        0.26992761132228
C           -6.13527429360900       -3.10303020199668        0.24753627693496
C           -5.62469270124997       -1.82695981309435        0.17702371464034
C           -4.23934366978723       -1.61041457280588        0.12644529634515
N           -3.75562699741182       -0.31787381913925        0.06482387040878
C           -4.69645048449579        0.75876681511457        0.06563386423064
C           -5.15716022303075        1.27165309502834        1.27153259952548
C           -6.06516625314540        2.31658654494534        1.26643819540483
C           -6.51177963261158        2.84533606236246        0.06610282135056
C           -6.05088070906044        2.32946008958899       -1.13445251975222
C           -5.14243201520427        1.28485118396559       -1.13997199466050
C            2.84710194889410       -0.66366138697796       -1.25495884445629
C            4.01156401250885       -1.36266875896988       -1.36678006648243
C            5.13188996315603       -1.04886659220561       -0.54837723149859
C            6.33681719353978       -1.78260129480084       -0.66915521012437
O            6.55339182756141       -2.72501174459203       -1.43923011495466
O            7.40874933881451       -1.42389073389676        0.15946994073051
H            9.36645480398187        0.03118864306256        1.16879973436890
H            8.79761326261962       -1.10513389518823        2.38272218526684
H            8.41350529594625        0.62245792872792        2.54797630860228
H            6.11361464342448        1.10658182792699        1.92443781744547
H            3.73290224584733        1.51168317222905        1.21893238928614
H            3.44984661737976        3.19245670250236       -0.42428330042540
H            2.77834648953141        5.56731060944174       -0.35828179888781
H            0.42272556707317        6.20550300038868       -0.11711317942007
H           -1.34644171667681        4.48499796292305        0.02876854743442
H           -2.75684819812665        2.10801564720182        0.01869129222567
H            0.63633964674589       -1.52799782640078       -0.09804391325600
H           -1.61181919756294       -4.31675452542954       -1.15058532879184
H           -1.75318640797008       -2.82067201867669       -2.07474703412765
H           -0.25270541613888       -3.20487498530460       -1.22879456834613
H           -1.48499643008317       -4.19883001694346        1.42683945258827
H           -0.15936613581491       -3.04549053738545        1.33100374809156
H           -1.61952131952615       -2.63343005966827        2.23061823263055
H           -3.25285820102858       -4.83781062136419        0.23119442172335
H           -5.66316670480908       -5.19479394380027        0.32756767773899
H           -7.20345708268638       -3.25191033714270        0.28590452232719
H           -6.29704855914258       -0.98424221063861        0.15965376813256
H           -4.80123969160379        0.85285869531095        2.20088639398916
H           -6.42286985648019        2.71727406869688        2.20272838282869
H           -7.21955678443456        3.66031647672146        0.06619004543429
H           -6.39792117329934        2.73965575746994       -2.07063150828333
H           -4.77533332461899        0.87639071741279       -2.06957240393285
H            2.01621949029066       -0.87857310821989       -1.91079882767188
H            4.12652951580796       -2.16216014240682       -2.08350581373936
