69
 energy: -107.548032417545 gnorm: 0.000077377860 xtb: 6.7.1 (edcfbbe)
C            8.55731262910048       -0.18076188023322        1.80998704717535
C            7.29776350297433       -0.39555590052736        1.03273182780295
C            6.17006096087946        0.31723660880042        1.18552935586968
C            5.01507316539446        0.03113320480663        0.37960409044582
C            3.83238980165190        0.73258844181076        0.48332095744054
C            2.72926303705453        0.40274002216621       -0.32177698135782
N            1.53720026939571        1.11401806215773       -0.21406881404345
C            1.42321813037465        2.50505350969447       -0.18972520121251
C            2.40590299517414        3.46702421387884       -0.29969245302427
C            2.01580023798347        4.80427928067473       -0.27524791385273
C            0.67689700193628        5.16069741839939       -0.14811798203670
C           -0.31677955353137        4.20132068268476       -0.06118635023924
C            0.04963397081040        2.85755359339895       -0.09479763858109
C           -0.68262208728117        1.63467094713284       -0.07598954488266
C           -2.02432517666987        1.31673290074850       -0.01189894956130
C           -2.42009541950063       -0.02902740483413        0.01788139468940
C           -1.45050073559643       -1.07754411698853        0.01127133049072
C           -0.10857647991821       -0.75202733730805       -0.07391784417792
C            0.28712866610073        0.57689123867299       -0.14461856289063
C           -1.85228937827147       -2.53332875898367        0.10884796283932
C           -1.32067361597469       -3.28064963921500       -1.13109684724324
C           -1.23413782603298       -3.13182278394646        1.38879749581651
C           -3.35267395000566       -2.71237693089241        0.16944325119356
C           -3.89476345654571       -3.98789802408824        0.25415472425836
C           -5.26038819874962       -4.20108035783112        0.30175072161277
C           -6.12549904230288       -3.11699940266074        0.26066353717383
C           -5.61831922474649       -1.84006406617423        0.18153106452898
C           -4.23328206661790       -1.61960246991769        0.14011126819764
N           -3.75301553509855       -0.32608516216087        0.07186742823455
C           -4.69680827567320        0.74783829400988        0.05993501197254
C           -5.17062589312056        1.26342206815784        1.25959223841837
C           -6.08109033737438        2.30608160156532        1.24219927738727
C           -6.51714738619468        2.82987807056432        0.03582416461542
C           -6.04326029190821        2.31126442610648       -1.15847749188002
C           -5.13222597539203        1.26892656763056       -1.15169218000498
C            2.84240366208441       -0.65667284408505       -1.25132478650639
C            4.00705582913954       -1.35387884644755       -1.37133945771506
C            5.13180065004801       -1.03962599214946       -0.55925179250634
C            6.33724001408393       -1.77094085399304       -0.68934808067401
O            6.54998976447582       -2.71196293963542       -1.46214047029224
O            7.41421594072522       -1.41126532837717        0.13205530284844
H            8.81794603624528       -1.09204937454303        2.34666026087580
H            8.43319553123363        0.63517614250227        2.51430148522463
H            9.37616822877363        0.04446476265621        1.12801783495360
H            6.12590256993004        1.11286200069361        1.91103065425703
H            3.73965689917591        1.51590096836956        1.22099359390690
H            3.44467223436832        3.19972328947148       -0.41781546768931
H            2.76797391219090        5.57348044925823       -0.36223884167534
H            0.41062370237909        6.20744295789270       -0.12699121209336
H           -1.35485975461182        4.48383541183526        0.02470191491087
H           -2.76058753724854        2.10241896264548        0.02090758468362
H            0.64293020210026       -1.52466871789325       -0.07141329981739
H           -1.58959538701963       -4.33198040695912       -1.09502631884773
H           -1.74115633459276       -2.84807620710667       -2.03709421450601
H           -0.23830475468283       -3.21164626261832       -1.18623319411897
H           -1.47437702677823       -4.18705545434890        1.47784492811215
H           -0.15288532982473       -3.02946656494660        1.37537102388541
H           -1.61753455393792       -2.61469477620816        2.26636569663173
H           -3.23765644914335       -4.84267611776697        0.28399486811825
H           -5.64752034884208       -5.20623612337681        0.36726084114877
H           -7.19349806979828       -3.26891775302493        0.29156747020584
H           -6.29309876524982       -0.99968798669513        0.15008754391296
H           -4.82268745543335        0.84855551397394        2.19371610876173
H           -6.44902806390562        2.70884966895251        2.17361819085022
H           -7.22689354246208        3.64309157421350        0.02627617237420
H           -6.38207235790117        2.71760664768569       -2.09934182523014
H           -4.75487480271549        0.85845167034929       -2.07628418008921
H            2.00787668551620       -0.87144189416103       -1.90255821200512
H            4.11893672835879       -2.15180829892133       -2.09027199458476
