  69
       -107.89878315
 C          8.8667266304       -3.0099827738       -1.5891224110
 C          8.8730042008       -1.6387817958       -1.7911746171
 C          7.8168686944       -0.8643861904       -1.3506729888
 C          6.7379541367       -1.4592334103       -0.6964923247
 C          5.5939514060       -0.6758399188       -0.2575870274
 N          4.3507833342       -1.1480328467       -0.3988077819
 C          3.5328930887       -0.1725446032       -0.0013553835
 C          2.1366490643       -0.2298362175        0.0104507345
 C          1.4441884539       -1.3920698746       -0.4471140033
 C          0.0886093518       -1.3839216349       -0.5014952215
 C         -0.6504736886       -0.2291047558       -0.0972412319
 C         -2.0741809033       -0.1734772358       -0.0870050391
 C         -2.7696928218        1.0607323189       -0.0884007608
 C         -4.1360214963        1.1188964741       -0.0859661024
 C         -4.9054566257       -0.0562258130       -0.0600370099
 N         -6.2947410893        0.0026166012       -0.0331548030
 C         -6.9656225415        1.0104339110       -0.7321802259
 C         -6.4938347323        1.4395143809       -1.9741303180
 C         -7.1546107430        2.4395403117       -2.6591563757
 C         -8.2924932088        3.0231801889       -2.1246571658
 C         -8.7659734341        2.5990419450       -0.8929574690
 C         -8.1105030686        1.6032594085       -0.1966890197
 C         -7.0202624258       -0.9343940808        0.7078334089
 C         -6.5247886373       -1.4082146363        1.9241989823
 C         -7.2425377591       -2.3367598629        2.6512102618
 C         -8.4615307306       -2.8034877932        2.1850623187
 C         -8.9588036362       -2.3343768086        0.9792177088
 C         -8.2471884023       -1.4097757899        0.2410550560
 C         -4.2353608688       -1.2907079110       -0.0561991319
 C         -2.8687248545       -1.3463342981       -0.0763452559
 C          0.1452016680        0.8494606432        0.3856216046
 N          1.4345652795        0.8473959984        0.4518953439
 O          4.2119906561        0.9437208015        0.4001369611
 C          5.5345443720        0.6314357430        0.2743680068
 C          6.5095383261        1.5592086140        0.7461439279
 C          6.1372897483        2.9003613187        0.9562778831
 C          7.0546818409        3.8173434025        1.4163507687
 C          8.3595109886        3.4282024300        1.6918175022
 C          8.7321419162        2.1015713553        1.5153381288
 C          7.8263309442        1.1729695845        1.0530937678
 C          6.7256016090       -2.8421095641       -0.5217495345
 C          7.7879008471       -3.6094833022       -0.9589471860
 H          9.6973702109       -3.6102691166       -1.9303815892
 H          9.7042583128       -1.1713470614       -2.2987738280
 H          7.8138074453        0.2012953535       -1.5271677715
 H          2.0361036826       -2.2244779474       -0.7904622948
 H         -0.4384070717       -2.2376506342       -0.9006143134
 H         -2.2106302631        1.9830262778       -0.1111467253
 H         -4.6380635070        2.0757326697       -0.0835706803
 H         -5.6147394908        0.9755495848       -2.3961519936
 H         -6.7833966069        2.7600149348       -3.6211148293
 H         -8.8065398150        3.8039668498       -2.6640008597
 H         -9.6478220703        3.0538280674       -0.4668528398
 H         -8.4720270693        1.2832882166        0.7695253282
 H         -5.5825554400       -1.0327902448        2.2951386049
 H         -6.8516112505       -2.6919092995        3.5929752771
 H         -9.0204977551       -3.5274834749        2.7577368862
 H         -9.9049009934       -2.6978248699        0.6066815116
 H         -8.6290790060       -1.0554944437       -0.7051261476
 H         -4.8154073309       -2.2025286343       -0.0524313114
 H         -2.3875004208       -2.3117680384       -0.0685521677
 H         -0.3319782162        1.7214952285        0.8143124926
 H          5.1222975410        3.1960792186        0.7393638523
 H          6.7578268656        4.8455286452        1.5644230808
 H          9.0772909853        4.1498129444        2.0520645276
 H          9.7396698881        1.7909844620        1.7515624947
 H          8.1160687974        0.1387457456        0.9521819360
 H          5.8751613434       -3.2951339060       -0.0362798323
 H          7.7758353499       -4.6794986001       -0.8108879689
