  54
  -94.9545715447000       0.218325204684915      !
 F         -1.4005585273       -1.6175725175        1.5684252794
 C         -0.7309031392       -0.8485208437        0.6850766909
 C          0.6404228148       -0.9552312077        0.6418917636
 C          1.4088636685       -0.1830988569       -0.2427253041
 N          2.7739237869       -0.3049534152       -0.2665890128
 C          3.6351037867        0.4549187392       -1.0925089054
 C          3.5583975571        0.3941494866       -2.4778562082
 C          4.4210484759        1.1485787576       -3.2512779740
 C          5.3839602301        1.9443224797       -2.6512266544
 C          5.5071037376        1.9662029757       -1.2741612045
 C          4.6402480661        1.2135944599       -0.4988136119
 S          4.8249781988        1.1662411318        1.2668326478
 C          4.4527837771       -0.5574740311        1.4561666840
 C          5.1473335895       -1.3309722684        2.3736681758
 C          4.8825244861       -2.6846290342        2.4681416260
 C          3.9535875939       -3.2718773802        1.6231473481
 C          3.2595629934       -2.5014003479        0.7076600837
 C          3.4741723405       -1.1293181317        0.6461927847
 C          0.6857865491        0.7392613409       -1.0206213261
 F          1.3164371172        1.6283250232       -1.8251550035
 C         -0.6900740505        0.8210516451       -0.9917354753
 C         -1.4402508950        0.0156275644       -0.1454059209
 N         -2.8533963132        0.1118004622       -0.1130253542
 C         -3.5875522049       -0.9394650530       -0.6596039707
 C         -2.9298124676       -2.0370805447       -1.2173137113
 C         -3.6263450984       -3.1084012792       -1.7477607240
 C         -5.0077410563       -3.1178670141       -1.7376852241
 C         -5.6793870748       -2.0249484730       -1.2194794829
 C         -4.9842275663       -0.9444647900       -0.7024397808
 S         -5.9639980947        0.4365339001       -0.1838385022
 C         -4.7733070803        1.4014623126        0.7023494553
 C         -5.2741062063        2.4489059765        1.4579223809
 C         -4.4257345692        3.2814585837        2.1656086990
 C         -3.0657925423        3.0410455267        2.1237137808
 C         -2.5641594720        1.9874315793        1.3806142506
 C         -3.4009905113        1.1490749929        0.6416706441
 H          1.1166504028       -1.6301211536        1.3320375702
 H          2.8035297572       -0.2248781086       -2.9389765767
 H          4.3412149473        1.1122887913       -4.3264751547
 H          6.0518784003        2.5372223597       -3.2564446708
 H          6.2661657179        2.5615577745       -0.7909660432
 H          5.8876685320       -0.8629839193        3.0034679727
 H          5.4159493282       -3.2854382870        3.1880140524
 H          3.7689519569       -4.3337567898        1.6735409348
 H          2.5444172185       -2.9554020024        0.0380159026
 H         -1.1804041143        1.5441726177       -1.6235473482
 H         -1.8521720736       -2.0529484546       -1.2459680149
 H         -3.0768045429       -3.9371072004       -2.1676008091
 H         -5.5596989767       -3.9529164168       -2.1385768399
 H         -6.7580863360       -1.9880182766       -1.2208621295
 H         -6.3419540907        2.6052846004        1.4736442460
 H         -4.8264090221        4.1000413186        2.7417770029
 H         -2.3814686708        3.6697053242        2.6726009242
 H         -1.5001579625        1.8146296357        1.3739381312
  54
  -94.9543378158000       0.170486309879503      !
 F         -1.3824749962       -1.5655976986        1.6993687881
 C         -0.7186265954       -0.8696130947        0.7541621495
 C          0.6533502067       -0.9799686121        0.7092647595
 C          1.4125394933       -0.2838712098       -0.2423352650
 N          2.7789177621       -0.3921120335       -0.2621937951
 C          3.6165107255        0.2934069142       -1.1738313398
 C          3.5619775156        0.0393995117       -2.5379644428
 C          4.3954390145        0.7253313765       -3.4016759854
 C          5.3051962838        1.6477236050       -2.9095901354
 C          5.4041735010        1.8685334583       -1.5483042530
 C          4.5674835628        1.1830731383       -0.6826345731
 S          4.7181405914        1.3981849631        1.0734350322
 C          4.4240016054       -0.2954817274        1.5094173605
 C          5.1279389293       -0.8841349522        2.5489198303
 C          4.9275268762       -2.2203545951        2.8416075334
 C          4.0559447551       -2.9770078494        2.0740250735
 C          3.3520684245       -2.3909416048        1.0369713298
 C          3.4989252580       -1.0340818775        0.7745622198
 C          0.6816316874        0.5551733479       -1.1040149894
 F          1.3052062993        1.3507107450       -2.0060876739
 C         -0.6918201539        0.6536165994       -1.0586120043
 C         -1.4317703979       -0.0649384541       -0.1276301332
 N         -2.8433590109        0.0454596385       -0.0498171229
 C         -3.6020398634       -0.8193616942       -0.8323952682
 C         -2.9643621820       -1.6758434585       -1.7316724979
 C         -3.6789051445       -2.5486794875       -2.5330826934
 C         -5.0581912519       -2.5875290310       -2.4655556655
 C         -5.7091089385       -1.7469567951       -1.5798581101
 C         -4.9963761270       -0.8791389422       -0.7692202265
 S         -5.9540135616        0.1048217036        0.3494661777
 C         -4.7261053455        1.1833315806        1.0322434155
 C         -5.1939486718        2.1911840876        1.8591685946
 C         -4.3190673674        3.0722795231        2.4696930369
 C         -2.9639276392        2.9355243512        2.2390354671
 C         -2.4940334747        1.9359265955        1.4058275982
 C         -3.3597986598        1.0351049494        0.7828717470
 H          1.1357711622       -1.5964603214        1.4478265267
 H          2.8440318860       -0.6744343744       -2.9133413979
 H          4.3344318442        0.5372305362       -4.4621428973
 H          5.9497911260        2.1872804968       -3.5857934374
 H          6.1204601642        2.5684941266       -1.1469764477
 H          5.8240679607       -0.2874503597        3.1174453442
 H          5.4686568456       -2.6766488807        3.6556836580
 H          3.9234901213       -4.0277438997        2.2802531117
 H          2.6830465527       -2.9787765907        0.4264263524
 H         -1.1885259639        1.3178125565       -1.7477608286
 H         -1.8882528409       -1.6613791203       -1.8009292926
 H         -3.1458761843       -3.1970279971       -3.2116584080
 H         -5.6249579850       -3.2617754406       -3.0874496218
 H         -6.7852915184       -1.7580068427       -1.4976518757
 H         -6.2581375232        2.2680207371        2.0223980347
 H         -4.6958042134        3.8489014178        3.1158133232
 H         -2.2583825246        3.6070052411        2.7039199339
 H         -1.4322199825        1.8516465092        1.2395312901
  54
  -94.9542695429000       0.158603752478293      !
 F         -1.4006055507       -1.6086117834        1.6516256645
 C         -0.7317934886       -0.8432510964        0.7651577766
 C          0.6397284124       -0.9569883040        0.7140976829
 C          1.4040423328       -0.1980643999       -0.1841246927
 N          2.7679055130       -0.3247770270       -0.2286894403
 C          3.6034055829        0.3812397613       -1.1252670824
 C          3.4712272243        0.2446569934       -2.5010625611
 C          4.3090400852        0.9455542170       -3.3482786871
 C          5.3007648723        1.7636533462       -2.8309388245
 C          5.4759876249        1.8634515826       -1.4629914763
 C          4.6338363502        1.1645974824       -0.6136171855
 S          4.8771102453        1.2207071795        1.1443222842
 C          4.5004740097       -0.4855105578        1.4490623985
 C          5.2229658922       -1.2058078115        2.3878933740
 C          4.9593586903       -2.5505045792        2.5710103281
 C          4.0051455126       -3.1835773958        1.7900061388
 C          3.2835264621       -2.4663656088        0.8525696846
 C          3.4942327352       -1.1000962299        0.7063300248
 C          0.6800313597        0.7241514463       -0.9630386079
 F          1.3109473136        1.6022292306       -1.7796008549
 C         -0.6938602988        0.8172679252       -0.9215492686
 C         -1.4413292495        0.0221089510       -0.0607961658
 N         -2.8556088990        0.0949296434       -0.0102978585
 C         -3.5651944607       -0.8639081319       -0.7291075300
 C         -2.8800818968       -1.7420778001       -1.5708990889
 C         -3.5422552450       -2.7154005133       -2.2979238918
 C         -4.9165882387       -2.8314765513       -2.2186803765
 C         -5.6158759954       -1.9597019191       -1.4030368125
 C         -4.9543674550       -0.9928036171       -0.6640889226
 S         -5.9669764377        0.0348138862        0.3621003907
 C         -4.8078828335        1.2601216889        0.9028962400
 C         -5.3407527735        2.3386459425        1.5894793105
 C         -4.5207476059        3.3235864511        2.1107839324
 C         -3.1541057521        3.2123477945        1.9426158763
 C         -2.6194807307        2.1429089512        1.2461878720
 C         -3.4302997276        1.1471933464        0.6986045646
 H          1.1170817921       -1.6293816476        1.4055702155
 H          2.6922136894       -0.3902368968       -2.8963183000
 H          4.1869869350        0.8502869467       -4.4158870246
 H          5.9496289567        2.3144274673       -3.4938593062
 H          6.2559913279        2.4796240987       -1.0437957372
 H          5.9849136317       -0.7039087972        2.9635605735
 H          5.5150839508       -3.1096597744        3.3073456372
 H          3.8231841112       -4.2407440581        1.9061219889
 H          2.5534669950       -2.9601739264        0.2288650001
 H         -1.1851468502        1.5371705758       -1.5566314301
 H         -1.8080225494       -1.6631569763       -1.6564587300
 H         -2.9726340193       -3.3798999190       -2.9295459758
 H         -5.4423214460       -3.5863479116       -2.7810784028
 H         -6.6905089512       -2.0218236207       -1.3211301459
 H         -6.4112473258        2.3856897464        1.7188882378
 H         -4.9476203923        4.1560070887        2.6469786598
 H         -2.4895192429        3.9578589604        2.3516907725
 H         -1.5493363457        2.0761506484        1.1349832163
  54
  -94.9538980282000       0.107047646513668      !
 F         -1.3867040010        0.5712567746        2.2775315915
 C         -0.7021470720        0.2964776694        1.1541930150
 C          0.6768206530        0.2434978682        1.2095520078
 C          1.4049270089       -0.0534626661        0.0637106222
 N          2.8168911229       -0.1068400461        0.1133283904
 C          3.4986228310        1.1093867403        0.0206560618
 C          2.7870931736        2.2886559252       -0.2034866782
 C          3.4244194445        3.5141850733       -0.2849702714
 C          4.7982661231        3.5951980398       -0.1630959649
 C          5.5230786988        2.4345543341        0.0383905318
 C          4.8863373200        1.2077455498        0.1361468553
 S          5.9226475991       -0.1945985393        0.4349297697
 C          4.8073171006       -1.5337469463        0.1248020018
 C          5.3769291943       -2.7931434730        0.0295598775
 C          4.5872465815       -3.9184661509       -0.1230172305
 C          3.2144157585       -3.7710261599       -0.1655090196
 C          2.6435389509       -2.5132001950       -0.0840839459
 C          3.4237839363       -1.3637236201        0.0408846142
 C          0.7043901974       -0.2866615813       -1.1211153826
 F          1.3897318693       -0.5658551472       -2.2426306895
 C         -0.6742961044       -0.2336627712       -1.1764222467
 C         -1.4027672417        0.0647749153       -0.0310185764
 N         -2.8140145714        0.1150594158       -0.0876590818
 C         -3.4916532800       -1.1049966802       -0.0153644137
 C         -2.7847643631       -2.2769528944        0.2557079488
 C         -3.4187031615       -3.5055514446        0.3163755385
 C         -4.7844993249       -3.5959264516        0.1264944220
 C         -5.5056408560       -2.4417152258       -0.1203146606
 C         -4.8713138269       -1.2122345939       -0.1977685477
 S         -5.8928007392        0.1846987512       -0.5640960467
 C         -4.8117329540        1.5258594520       -0.1557021224
 C         -5.3987160194        2.7765016671       -0.0531080560
 C         -4.6285549467        3.9041599860        0.1668000956
 C         -3.2578081790        3.7680010246        0.2707777353
 C         -2.6703322527        2.5181160779        0.1842578561
 C         -3.4321339480        1.3661218564       -0.0089562558
 H          1.1861322881        0.4297615099        2.1414494652
 H          1.7151766580        2.2507932836       -0.3164488379
 H          2.8356277654        4.4033572748       -0.4495138695
 H          5.3041117138        4.5451083623       -0.2266926384
 H          6.5977713538        2.4632871899        0.1328708609
 H          6.4511819394       -2.8762104732        0.0918298993
 H          5.0416912326       -4.8937511709       -0.1921901143
 H          2.5733072002       -4.6337704674       -0.2606655084
 H          1.5685319817       -2.4315904454       -0.1090424677
 H         -1.1838180785       -0.4207999955       -2.1078889046
 H         -1.7199923235       -2.2301820703        0.4226030463
 H         -2.8343318185       -4.3896696048        0.5194226124
 H         -5.2873323945       -4.5485142826        0.1732759472
 H         -6.5738204380       -2.4782940796       -0.2688195617
 H         -6.4692157516        2.8517631869       -0.1661402197
 H         -5.0955578553        4.8731339901        0.2402525091
 H         -2.6311895769        4.6336890274        0.4197769267
 H         -1.5968266112        2.4463408511        0.2575848637
  54
  -94.9535156221000       7.142256583300363E-002 !
 F         -1.4420078562       -0.6125927442        2.2200049492
 C         -0.7320442759       -0.3178410572        1.1166406913
 C          0.6448496393       -0.4013000379        1.1704857538
 C          1.4031166586       -0.1014276188        0.0419915353
 N          2.8104084528       -0.1602029888        0.0441134051
 C          3.4846080197        1.0647692523       -0.0082264814
 C          2.7927975096        2.2415785851        0.2805944778
 C          3.4121877040        3.4768770394        0.2161344409
 C          4.7515991006        3.5683279044       -0.1125825842
 C          5.4642128690        2.4091236581       -0.3595506631
 C          4.8415125245        1.1719408766       -0.3125935807
 S          5.8435836273       -0.2413145009       -0.6633639238
 C          4.8176246658       -1.5507455240       -0.0570540177
 C          5.4357596131       -2.7798267405        0.1118619973
 C          4.7044368393       -3.8975297344        0.4694632280
 C          3.3384849026       -3.7754773280        0.6387596375
 C          2.7214261387       -2.5453899488        0.4926453771
 C          3.4466790061       -1.3988594807        0.1676665687
 C          0.7260340134        0.2899063386       -1.1153318324
 F          1.4362825598        0.5882580551       -2.2175226418
 C         -0.6499376914        0.3771520275       -1.1674905141
 C         -1.4073395589        0.0722525687       -0.0399915284
 N         -2.8168366640        0.1427296350       -0.0458781176
 C         -3.5062101822       -1.0719173178       -0.0850014797
 C         -2.8161498946       -2.2431003693       -0.4002687929
 C         -3.4547979410       -3.4698652885       -0.4374690766
 C         -4.8105849011       -3.5576077993       -0.1842640249
 C         -5.5174498604       -2.4028569191        0.0982769062
 C         -4.8769498742       -1.1752057524        0.1536463800
 S         -5.8808625418        0.2247074160        0.5535317886
 C         -4.7973330839        1.5657859724        0.1509364155
 C         -5.3761745982        2.8243115014        0.1119435429
 C         -4.6064301031        3.9529965019       -0.1040688994
 C         -3.2427793292        3.8093157784       -0.2721103506
 C         -2.6635472260        2.5524213008       -0.2509715174
 C         -3.4255130838        1.4001104295       -0.0563859572
 H          1.1282907922       -0.6808533947        2.0928318722
 H          1.7518356524        2.1908354495        0.5608494448
 H          2.8392782302        4.3654892473        0.4320557527
 H          5.2419380515        4.5269140804       -0.1684436653
 H          6.5142182008        2.4469304450       -0.6058510922
 H          6.4985819423       -2.8469051801       -0.0629836625
 H          5.1946526375       -4.8496245712        0.5941052126
 H          2.7383711696       -4.6373211233        0.8869613639
 H          1.6524198322       -2.4867703374        0.6158544886
 H         -1.1352890840        0.6706349277       -2.0846008311
 H         -1.7609179375       -2.1948482583       -0.6208464049
 H         -2.8831613326       -4.3544558848       -0.6725023616
 H         -5.3168358137       -4.5091719376       -0.2108944779
 H         -6.5785057692       -2.4373012058        0.2924182492
 H         -6.4403695261        2.9039487784        0.2728356910
 H         -5.0675481434        4.9272891379       -0.1255452547
 H         -2.6147185088        4.6740374922       -0.4215885310
 H         -1.5955611556        2.4733231746       -0.3735333212
  54
  -94.9534558878000       6.704763516485730E-002 !
 F         -1.4332538628        0.3245085955        2.2733863396
 C         -0.7245106373        0.1507746385        1.1448199141
 C          0.6542533067        0.1421257150        1.2179016033
 C          1.4062465700       -0.0369875260        0.0636577271
 N          2.8198397917       -0.0461226683        0.1285819207
 C          3.4938412922        1.0914284837       -0.3220072775
 C          2.7772697460        2.1791850470       -0.8210013766
 C          3.4162385164        3.3165049352       -1.2827213113
 C          4.7949748678        3.3997115492       -1.2617773811
 C          5.5221679477        2.3417006980       -0.7466611658
 C          4.8843517825        1.2086239633       -0.2688216823
 S          5.9205759101       -0.0221653103        0.4702254787
 C          4.8141782421       -1.3994418842        0.5708473086
 C          5.3842342794       -2.6313209429        0.8481823440
 C          4.5975850370       -3.7608908174        0.9857150341
 C          3.2294131105       -3.6481751366        0.8290982140
 C          2.6583247921       -2.4217532852        0.5377834906
 C          3.4337066370       -1.2689931845        0.4088523218
 C          0.7281425213       -0.2012185180       -1.1453540991
 F          1.4362372328       -0.3746386130       -2.2754037967
 C         -0.6500295395       -0.1772203637       -1.2213960515
 C         -1.4055208594       -0.0061490992       -0.0641418090
 N         -2.8133282849        0.0404167498       -0.0868662618
 C         -3.5350404175       -1.1186639183       -0.3871962187
 C         -2.8870491219       -2.2573691448       -0.8661881562
 C         -3.5858797619       -3.4087829365       -1.1844068822
 C         -4.9589662894       -3.4562739438       -1.0379132816
 C         -5.6159535638       -2.3488021748       -0.5339228390
 C         -4.9167937585       -1.2010202189       -0.1951445323
 S         -5.8615674165        0.0853644850        0.5706021729
 C         -4.7491717885        1.4532866501        0.4478243630
 C         -5.2805558099        2.7131675080        0.6744938212
 C         -4.4800486490        3.8391324598        0.6144848678
 C         -3.1433069919        3.6968257778        0.2928740858
 C         -2.6147988647        2.4419082402        0.0491796201
 C         -3.3972040671        1.2906804338        0.1463506017
 H          1.1442973393        0.2658885680        2.1701161251
 H          1.6995408960        2.1456230796       -0.8425405685
 H          2.8237702095        4.1357748107       -1.6597392413
 H          5.3018452363        4.2781066511       -1.6276274930
 H          6.5991836711        2.3851123518       -0.6939276741
 H          6.4556847393       -2.6862417486        0.9653280260
 H          5.0518459225       -4.7122056684        1.2115652954
 H          2.5934187659       -4.5142820763        0.9283061841
 H          1.5884619355       -2.3605442745        0.4135023397
 H         -1.1353277866       -0.2824341914       -2.1786490674
 H         -1.8149643373       -2.2575853308       -0.9761548048
 H         -3.0439291516       -4.2679631295       -1.5484427879
 H         -5.5126233754       -4.3451128668       -1.2936427148
 H         -6.6833836574       -2.3635903280       -0.3758194486
 H         -6.3304837668        2.7926093534        0.9111209930
 H         -4.9002854735        4.8128033563        0.8089349816
 H         -2.5016245293        4.5615192497        0.2227639714
 H         -1.5730912250        2.3557378162       -0.2189596999
  54
  -94.9534168231000       6.433252113744373E-002 !
 F         -1.3835993772        0.2426274158        2.3874574617
 C         -0.6970258749        0.1924543686        1.2323475866
 C          0.6815402178        0.1283509168        1.2805796042
 C          1.4133764770        0.0453579688        0.0999764866
 N          2.8209886786       -0.0687256035        0.1055686200
 C          3.5472787334        1.0605086724       -0.2799704441
 C          2.9023758170        2.2959984589       -0.3475589076
 C          3.5737840568        3.4425017070       -0.7335980965
 C          4.9190306929        3.3896135316       -1.0451494229
 C          5.5823889142        2.1793474480       -0.9537896630
 C          4.9098904467        1.0272547356       -0.5782063956
 S          5.8719253073       -0.4549663331       -0.5081242720
 C          4.7314959996       -1.5993237244        0.2147788354
 C          5.2505261946       -2.8421692558        0.5427691758
 C          4.4397818919       -3.8388151096        1.0544628086
 C          3.0940191565       -3.5803797540        1.2291048554
 C          2.5740981328       -2.3374616622        0.9124376002
 C          3.3782344328       -1.3136365141        0.4103245761
 C          0.7161088006        0.0625672423       -1.1083833956
 F          1.4052093147       -0.0041559071       -2.2597466187
 C         -0.6616626074        0.1364317323       -1.1567120429
 C         -1.3948710098        0.1909093519        0.0228626758
 N         -2.8068334864        0.1942724914       -0.0294516193
 C         -3.4229567163       -1.0461489951       -0.2216775203
 C         -2.6607743568       -2.2146652439       -0.1861180991
 C         -3.2319103756       -3.4573725075       -0.3962216291
 C         -4.5889930920       -3.5708588890       -0.6300135138
 C         -5.3657523932       -2.4264950727       -0.6407474712
 C         -4.7944701902       -1.1793160838       -0.4441334628
 S         -5.8848266847        0.2119037891       -0.5137722748
 C         -4.8736396420        1.4841051474        0.1892768957
 C         -5.5233851610        2.6502887597        0.5591888766
 C         -4.8095966564        3.7422059763        1.0194761835
 C         -3.4321972718        3.6601172200        1.0905144844
 C         -2.7820722794        2.4898858753        0.7395902337
 C         -3.4866514894        1.3676134316        0.3053452587
 H          1.1862211155        0.1239225285        2.2337098556
 H          1.8554694062        2.3624104428       -0.0941778814
 H          3.0357547887        4.3764915076       -0.7836865566
 H          5.4513834559        4.2765442171       -1.3490871166
 H          6.6349985699        2.1074692326       -1.1812713812
 H          6.3023486336       -3.0172337774        0.3758497688
 H          4.8554043417       -4.8026121106        1.3008283068
 H          2.4341868392       -4.3436511315        1.6118096699
 H          1.5182370645       -2.1690704968        1.0497824115
 H         -1.1686750174        0.1275545411       -2.1080468614
 H         -1.6008753451       -2.1555252319        0.0042185322
 H         -2.6044621040       -4.3349681451       -0.3717623497
 H         -5.0422957231       -4.5347378150       -0.7966302981
 H         -6.4297689190       -2.4822719594       -0.8119939147
 H         -6.5974042691        2.6928886258        0.4617092738
 H         -5.3253244649        4.6463691432        1.3006175408
 H         -2.8499672409        4.5066415083        1.4203995860
 H         -1.7054949974        2.4578103326        0.7954110955
  54
  -94.9533123364000       5.759858425023830E-002 !
 F         -1.3781114552       -0.1009799201        2.3259531286
 C         -0.6984619004       -0.0329211942        1.1676583778
 C          0.6800904933       -0.0923091324        1.2014444716
 C          1.4075555418       -0.0193547009        0.0167287468
 N          2.8168066274       -0.0718788322       -0.0016469843
 C          3.5424570969        1.0125474037        0.4993824296
 C          2.8978361436        2.0501730923        1.1725720481
 C          3.6008168705        3.1246854683        1.6890784802
 C          4.9739156647        3.1927831277        1.5528647384
 C          5.6277724602        2.1887729790        0.8623524224
 C          4.9246557972        1.1218455997        0.3261158576
 S          5.8619993604       -0.0179223850       -0.6512406593
 C          4.7494297590       -1.3883982297       -0.7434086006
 C          5.2810828663       -2.5988013472       -1.1583676062
 C          4.4780014107       -3.7174016575       -1.2836951193
 C          3.1372860301       -3.6203895786       -0.9637061424
 C          2.6079124105       -2.4174073071       -0.5316413155
 C          3.3950641793       -1.2704126212       -0.4305605737
 C          0.6979599745        0.0889434344       -1.1801863285
 F          1.3769834109        0.1429554751       -2.3395812431
 C         -0.6812807006        0.1346417226       -1.2149795727
 C         -1.4075954232        0.0852774477       -0.0285909444
 N         -2.8175753138        0.1275772107       -0.0112705875
 C         -3.4777946998       -1.0777424380        0.2451376757
 C         -2.7680778587       -2.2772382147        0.1841220427
 C         -3.3776780182       -3.4912867713        0.4448789583
 C         -4.7246034429       -3.5436902848        0.7497610406
 C         -5.4520417830       -2.3681994378        0.7818440530
 C         -4.8396472374       -1.1491176165        0.5392785879
 S         -5.8651378810        0.2874703222        0.6376994716
 C         -4.8341155859        1.5070978695       -0.1253249243
 C         -5.4523591801        2.6997745486       -0.4659607735
 C         -4.7215166833        3.7564157778       -0.9777699325
 C         -3.3565851923        3.6105345850       -1.1346074382
 C         -2.7384588319        2.4147314144       -0.8127357003
 C         -3.4620116924        1.3285656243       -0.3197826543
 H          1.1891971236       -0.1945980884        2.1463925828
 H          1.8261233593        2.0325138802        1.2839268876
 H          3.0617124498        3.9072944263        2.1996684776
 H          5.5305292692        4.0207184328        1.9614685199
 H          6.6955613598        2.2267438028        0.7107266069
 H          6.3331105147       -2.6441492031       -1.3933133341
 H          4.8993789863       -4.6507176849       -1.6209651562
 H          2.4923587970       -4.4818677522       -1.0418967726
 H          1.5623922590       -2.3686987981       -0.2692235663
 H         -1.1915208731        0.2093010126       -2.1620282074
 H         -1.7197798641       -2.2619721693       -0.0710918939
 H         -2.7904883936       -4.3953313496        0.4011918157
 H         -5.2085282047       -4.4850643078        0.9547049624
 H         -6.5069140646       -2.3766159329        1.0090798176
 H         -6.5152044257        2.7902985132       -0.3031671255
 H         -5.2127734840        4.6811631282       -1.2342511035
 H         -2.7577692455        4.4267110274       -1.5084379632
 H         -1.6700938549        2.3360023743       -0.9332649484
  54
  -94.9532197716000       5.222422117992251E-002 !
 F         -1.3821070732        0.6260736567        2.2575635580
 C         -0.7027959482        0.3314025904        1.1352149043
 C          0.6772936240        0.3098857064        1.1803850776
 C          1.4053465438        0.0092681258        0.0324745114
 N          2.8120979231       -0.0376248892        0.0243935251
 C          3.5436643978        1.1364227122        0.2312750416
 C          2.9116253334        2.3114262888        0.6384329222
 C          3.6240658571        3.4752308080        0.8696390756
 C          4.9955594035        3.5005541966        0.7043173052
 C          5.6357755162        2.3572057258        0.2630743410
 C          4.9223735429        1.1960963584        0.0097489646
 S          5.8426845897       -0.1403850896       -0.6975407354
 C          4.7344474158       -1.4929515918       -0.4437613829
 C          5.2600199215       -2.7677715413       -0.5848457319
 C          4.4612657475       -3.8837892103       -0.4161945011
 C          3.1340707026       -3.7138762937       -0.0689137882
 C          2.6123251117       -2.4427387017        0.0904579663
 C          3.3908286825       -1.3041526895       -0.1211453347
 C          0.6934218530       -0.2795340929       -1.1350285873
 F          1.3730215868       -0.5801198832       -2.2555656263
 C         -0.6853834441       -0.2669046057       -1.1770071743
 C         -1.4106605167        0.0445307437       -0.0309027684
 N         -2.8238319248        0.0701987027       -0.0327765249
 C         -3.5027090568       -1.1483129613        0.0190691382
 C         -2.7957610706       -2.3470747445       -0.0829631456
 C         -3.4372502837       -3.5726909805       -0.0428524038
 C         -4.8100961373       -3.6374832624        0.0974806364
 C         -5.5266424664       -2.4604785703        0.2172691006
 C         -4.8864247009       -1.2317200594        0.1902480851
 S         -5.9177367698        0.1849069996        0.4428517658
 C         -4.8026432304        1.5147043552        0.1006600676
 C         -5.3596376987        2.7816760349        0.0337818844
 C         -4.5717507988        3.8904614084       -0.2180512826
 C         -3.2166873610        3.7170726337       -0.4244189556
 C         -2.6591767195        2.4517473381       -0.3697153425
 C         -3.4331176502        1.3249115651       -0.0897519769
 H          1.1839182117        0.5074907717        2.1113685993
 H          1.8410770851        2.3310108178        0.7596488994
 H          3.0934342083        4.3616517555        1.1811524157
 H          5.5599966362        4.3990297501        0.8951767605
 H          6.7004904511        2.3526488303        0.0873163183
 H          6.3034650220       -2.8674251137       -0.8415165648
 H          4.8757396826       -4.8705832736       -0.5461803437
 H          2.4950201819       -4.5692610751        0.0873510226
 H          1.5798538341       -2.3335617086        0.3851873497
 H         -1.1979310851       -0.4919951370       -2.0985796555
 H         -1.7226637391       -2.3261189534       -0.1857589843
 H         -2.8512294359       -4.4753829572       -0.1214005351
 H         -5.3194894450       -4.5872197500        0.1251771115
 H         -6.5978523496       -2.4766989321        0.3480682503
 H         -6.4224518897        2.8834602561        0.1913274930
 H         -5.0158143288        4.8720945671       -0.2568940744
 H         -2.5815078627        4.5635225821       -0.6354714494
 H         -1.6014408414        2.3382478789       -0.5496463379
  54
  -94.9522134302000       1.800484910425616E-002 !
 F         -1.4120087654       -0.0520600495        2.2499919715
 C         -0.7131897213       -0.0320808236        1.1031175290
 C          0.6652241527       -0.0800201671        1.1564368599
 C          1.4023113589       -0.0570461462       -0.0231625288
 N          2.8169662666       -0.1030217295       -0.0026681990
 C          3.4951328842        1.1163828525        0.0128637273
 C          2.7750073491        2.3062955896        0.1227352585
 C          3.4085298930        3.5366579219        0.1422539072
 C          4.7855674815        3.6123307652        0.0636929160
 C          5.5170277296        2.4424861168       -0.0384651625
 C          4.8855949194        1.2096358766       -0.0697919165
 S          5.9373687512       -0.2033358857       -0.2415419779
 C          4.8021308393       -1.5386518645        0.0062138848
 C          5.3588512339       -2.8036201832        0.1031522290
 C          4.5583578951       -3.9226272267        0.2483320825
 C          3.1871145717       -3.7635126300        0.2934070018
 C          2.6277765305       -2.5003312807        0.2092144340
 C          3.4189342691       -1.3595521100        0.0707344343
 C          0.7155154154        0.0144083312       -1.2332442805
 F          1.4126162630        0.0374790598       -2.3802059837
 C         -0.6657089470        0.0623734926       -1.2865279747
 C         -1.4012938012        0.0393701288       -0.1103245132
 N         -2.8158669497        0.0926644422       -0.1541895207
 C         -3.5050277000       -1.1163873061       -0.0315039223
 C         -2.8002959811       -2.3079660491        0.1374593786
 C         -3.4527884463       -3.5227731912        0.2558444610
 C         -4.8325372039       -3.5803951576        0.2161299669
 C         -5.5484194636       -2.4097609113        0.0399582937
 C         -4.8976123545       -1.1943348139       -0.0944683822
 S         -5.9185639429        0.2176181961       -0.4066004284
 C         -4.7879383252        1.5430474030       -0.0948102156
 C         -5.3386137935        2.8067040333        0.0428866075
 C         -4.5309225715        3.9148939238        0.2255748379
 C         -3.1606790162        3.7452929611        0.2731607672
 C         -2.6083488178        2.4819990842        0.1529767132
 C         -3.4064436437        1.3527181677       -0.0296078823
 H          1.1687257995       -0.1337252131        2.1085925560
 H          1.6986415819        2.2726815735        0.1898106241
 H          2.8138607693        4.4335970921        0.2219457710
 H          5.2890030040        4.5655222022        0.0804327595
 H          6.5938415040        2.4685124833       -0.1045044369
 H          6.4327443490       -2.8958591703        0.0522179453
 H          5.0042480663       -4.9016339450        0.3176821610
 H          2.5389956121       -4.6200205560        0.3958489011
 H          1.5544127488       -2.4024524898        0.2449715605
 H         -1.1681707054        0.1172053368       -2.2388424711
 H         -1.7221061339       -2.2911285999        0.1688499457
 H         -2.8704110436       -4.4224907534        0.3816098139
 H         -5.3497227251       -4.5214448059        0.3123311533
 H         -6.6263228906       -2.4234297013       -0.0104881314
 H         -6.4119149310        2.9072317307       -0.0080307988
 H         -4.9702825722        4.8944773783        0.3239179463
 H         -2.5079150736        4.5940902547        0.4067717593
 H         -1.5355782539        2.3764616630        0.1953451519
  54
  -94.9520349851000       1.490670977390005E-002 !
 F         -1.2954643104        0.8256727495        2.3195032062
 C         -0.6541507576        0.5589618690        1.1683814719
 C          0.7276069203        0.5275084664        1.1705860748
 C          1.4155002021        0.2227560489       -0.0001041700
 N          2.8110110087        0.0419705919       -0.0410882693
 C          3.6769273219        1.1174805556        0.1699128874
 C          3.1985915813        2.3376426334        0.6460648546
 C          4.0494174511        3.4038235218        0.8811922796
 C          5.4067322164        3.2793318281        0.6533560257
 C          5.8946612592        2.0887237758        0.1462890578
 C          5.0426461543        1.0271554639       -0.1128620515
 S          5.7653742807       -0.3805218505       -0.9081176247
 C          4.5382020771       -1.6128260585       -0.5945480596
 C          4.9158400309       -2.9365760295       -0.7578191829
 C          4.0108921935       -3.9603865913       -0.5453022949
 C          2.7300434932       -3.6497058364       -0.1284250087
 C          2.3569824256       -2.3302548292        0.0536630281
 C          3.2408904607       -1.2816326247       -0.2048889229
 C          0.6664586893       -0.0002741069       -1.1594695292
 F          1.3106400847       -0.2772356033       -2.3066001036
 C         -0.7120843473        0.0192112281       -1.1578625318
 C         -1.3990338550        0.2759444947        0.0253086467
 N         -2.8085131783        0.1805437279        0.0888633748
 C         -3.3555397551       -1.1044374156        0.1348268393
 C         -2.5314148893       -2.2248252418        0.0174079298
 C         -3.0438626574       -3.5099729441        0.0519657489
 C         -4.4014470670       -3.7164671746        0.2005600647
 C         -5.2331609022       -2.6194747622        0.3358276974
 C         -4.7218416941       -1.3315681245        0.3169841013
 S         -5.8867577971       -0.0284886723        0.5966031988
 C         -4.9303235639        1.4033972066        0.1886036714
 C         -5.6241070978        2.5971911401        0.0768278943
 C         -4.9610483081        3.7773773972       -0.2086293882
 C         -3.5922651254        3.7502099848       -0.3958715056
 C         -2.8985059277        2.5565295523       -0.3007260465
 C         -3.5478482325        1.3596494198        0.0019001208
 H          1.2618440766        0.6905982393        2.0928448051
 H          2.1422249256        2.4684214563        0.8160340429
 H          3.6391208517        4.3332976272        1.2448256625
 H          6.0776762213        4.1008869522        0.8458347495
 H          6.9435816648        1.9714747492       -0.0787333763
 H          5.9273001464       -3.1481140140       -1.0688683821
 H          4.3083270073       -4.9858090006       -0.6953992296
 H          2.0113184027       -4.4313057493        0.0641557744
 H          1.3597014710       -2.1132148027        0.4037372051
 H         -1.2555507319       -0.1888515712       -2.0655940830
 H         -1.4670301355       -2.0983331524       -0.0950456265
 H         -2.3680565559       -4.3463964836       -0.0386565552
 H         -4.8106758539       -4.7136112050        0.2231750165
 H         -6.2959566397       -2.7464141137        0.4736284234
 H         -6.6925775700        2.5858286676        0.2285040630
 H         -5.5111099060        4.7016968526       -0.2828401082
 H         -3.0527560016        4.6568327358       -0.6226150802
 H         -1.8315523227        2.5531856675       -0.4634708051
