  54
        -95.24609279
 F         -1.4110753613       -1.3053650800        1.8926392806
 C         -0.7363757056       -0.7016423653        0.8930337933
 C          0.6358523259       -0.8167060781        0.8738979105
 C          1.4061728395       -0.2209495895       -0.1353717313
 N          2.7707190148       -0.3477053996       -0.1459349260
 C          3.6123505008        0.1965217578       -1.1438551549
 C          3.4929355581       -0.1759725603       -2.4764943502
 C          4.3364490505        0.3717393540       -3.4248925362
 C          5.3212636067        1.2710077050       -3.0481943880
 C          5.4838909830        1.6060966696       -1.7165749338
 C          4.6360143205        1.0607513468       -0.7664401260
 S          4.8632958703        1.4203905258        0.9574172994
 C          4.4885366347       -0.2092184743        1.5488819055
 C          5.2044863068       -0.7536579603        2.6039780943
 C          4.9428706940       -2.0476832823        3.0142045075
 C          3.9974410501       -2.8100419532        2.3461898604
 C          3.2823599405       -2.2683973093        1.2930070683
 C          3.4906866661       -0.9469825245        0.9149354755
 C          0.6867191842        0.5499663614       -1.0678179110
 F          1.3225907218        1.2766174918       -2.0183414308
 C         -0.6877366671        0.6430573617       -1.0545698348
 C         -1.4407777593        0.0052150034       -0.0758105335
 N         -2.8556461707        0.0796992985       -0.0505256061
 C         -3.5561399327       -0.9917720940       -0.5990020750
 C         -2.8611074470       -1.9991329226       -1.2708117390
 C         -3.5140780234       -3.0860897157       -1.8244813763
 C         -4.8887506224       -3.1925383823       -1.7379464930
 C         -5.5977049548       -2.1960483634       -1.0909069298
 C         -4.9454891863       -1.1133649265       -0.5243903581
 S         -5.9700674254        0.0716404315        0.3004980739
 C         -4.8192015925        1.3767579008        0.6314264212
 C         -5.3611412275        2.5553248326        1.1170627773
 C         -4.5485246566        3.6188911539        1.4674279840
 C         -3.1801286469        3.4860599897        1.3324734250
 C         -2.6363698734        2.3147506673        0.8355869332
 C         -3.4395349625        1.2360750713        0.4612751809
 H          1.1087725028       -1.3576769961        1.6750285447
 H          2.7192290808       -0.8728229144       -2.7627762208
 H          4.2242721590        0.0931632816       -4.4610257822
 H          5.9745822306        1.7018556534       -3.7907474963
 H          6.2584225288        2.2886418668       -1.4034737486
 H          5.9598620551       -0.1567466710        3.0907676736
 H          5.4934497080       -2.4690441588        3.8406381382
 H          3.8172950215       -3.8320705889        2.6414847475
 H          2.5592817970       -2.8654942838        0.7577742078
 H         -1.1752254053        1.2404964202       -1.8084749716
 H         -1.7885379914       -1.9316449297       -1.3596955211
 H         -2.9370009672       -3.8472074081       -2.3271305457
 H         -5.4073590739       -4.0353402844       -2.1660211870
 H         -6.6728603456       -2.2476305753       -1.0085421397
 H         -6.4328807560        2.6194839244        1.2274093700
 H         -4.9824534267        4.5295441458        1.8483035938
 H         -2.5212671003        4.2937699043        1.6123136539
 H         -1.5650912224        2.2343128073        0.7465703402
  54
        -95.24606458
 F         -1.3953926807       -1.2530055902        1.9321086421
 C         -0.7240003479       -0.7286331127        0.8867519096
 C          0.6485619089       -0.8400984413        0.8739928671
 C          1.4153511688       -0.3163740061       -0.1768208747
 N          2.7820728663       -0.4214449979       -0.1653361482
 C          3.6269036570        0.0990597252       -1.1742548670
 C          3.5858542353       -0.3873198905       -2.4742943159
 C          4.4260973577        0.1418680612       -3.4361206147
 C          5.3292662040        1.1387903647       -3.1028847346
 C          5.4148518258        1.5921424092       -1.7995046060
 C          4.5713608485        1.0637459125       -0.8358604750
 S          4.7048827452        1.5799746619        0.8577837844
 C          4.4100431998       -0.0137829505        1.5775834145
 C          5.1052583050       -0.4111516739        2.7095638980
 C          4.9047795031       -1.6773047927        3.2272303413
 C          4.0420671141       -2.5585126648        2.5943303542
 C          3.3468949616       -2.1632680228        1.4652097448
 C          3.4934914611       -0.8717426662        0.9733098468
 C          0.6909694925        0.3582751607       -1.1772376013
 F          1.3214783251        0.9880144982       -2.1977017867
 C         -0.6830484165        0.4580900391       -1.1619326731
 C         -1.4303580773       -0.0912503327       -0.1273659040
 N         -2.8428432413        0.0258074342       -0.0825534444
 C         -3.5922981036       -0.9641201603       -0.7104880699
 C         -2.9443679808       -1.9609421939       -1.4422159996
 C         -3.6494917984       -2.9618610380       -2.0869132537
 C         -5.0292759712       -2.9934613149       -2.0261151320
 C         -5.6902841737       -2.0147063682       -1.3051279001
 C         -4.9870479736       -1.0171401193       -0.6504905267
 S         -5.9572664961        0.1420327237        0.2723862897
 C         -4.7380905043        1.3268663780        0.7692826682
 C         -5.2158130842        2.4608761231        1.4050910831
 C         -4.3485607501        3.4374885374        1.8618055878
 C         -2.9910155589        3.2678225774        1.6705123821
 C         -2.5111992337        2.1408635588        1.0271064323
 C         -3.3691777648        1.1427049729        0.5616440128
 H          1.1251880882       -1.3177569327        1.7124052600
 H          2.8729562420       -1.1579406167       -2.7269457556
 H          4.3755543030       -0.2270861923       -4.4485493928
 H          5.9791656416        1.5555646730       -3.8564130703
 H          6.1258723483        2.3535828772       -1.5189092415
 H          5.7947419839        0.2774239342        3.1725166815
 H          5.4390697069       -1.9839044095        4.1128243276
 H          3.9097862430       -3.5581999687        2.9780588348
 H          2.6848986589       -2.8502985813        0.9595860587
 H         -1.1745250772        0.9912299414       -1.9600627187
 H         -1.8676804313       -1.9547618329       -1.5032304124
 H         -3.1087248276       -3.7158875127       -2.6382351393
 H         -5.5887390970       -3.7671910029       -2.5270424964
 H         -6.7671749643       -2.0152838590       -1.2319513629
 H         -6.2816588594        2.5609207471        1.5429659864
 H         -4.7329942447        4.3128069661        2.3603757228
 H         -2.2912825448        4.0121696337        2.0185342643
 H         -1.4476844798        2.0329485549        0.8874776124
  54
        -95.24595130
 F         -1.4102549418       -1.3285480303        1.8122372982
 C         -0.7347500472       -0.7206479163        0.8150742557
 C          0.6371921672       -0.8274321567        0.8024806827
 C          1.4114812711       -0.2163003845       -0.1956332435
 N          2.7770248093       -0.3346938672       -0.1866351690
 C          3.6435534821        0.2748810509       -1.1240394738
 C          3.5794896350       -0.0243522736       -2.4787051661
 C          4.4470311068        0.5889266374       -3.3634492717
 C          5.4023494199        1.4803263054       -2.9016676605
 C          5.5130280190        1.7400210842       -1.5480572282
 C          4.6412597246        1.1288502053       -0.6617658426
 S          4.8102099127        1.3876625771        1.0870469731
 C          4.4409787418       -0.2790767777        1.5678986064
 C          5.1293232218       -0.8797169938        2.6109331984
 C          4.8673281719       -2.1978690570        2.9353857617
 C          3.9476262594       -2.9260266159        2.1966472012
 C          3.2597969832       -2.3280124736        1.1561223783
 C          3.4712475517       -0.9862274902        0.8605775862
 C          0.6929518727        0.5549373308       -1.1270939062
 F          1.3284200720        1.2944839752       -2.0676680589
 C         -0.6833287732        0.6346890293       -1.1243215180
 C         -1.4389200539       -0.0157646679       -0.1580199259
 N         -2.8525541546        0.0785997355       -0.1546010058
 C         -3.5789186620       -1.0542956932       -0.5176916154
 C         -2.9132237253       -2.2289031733       -0.8720487848
 C         -3.6020577762       -3.3786106793       -1.2154729481
 C         -4.9834578788       -3.3920144924       -1.2155247410
 C         -5.6626900748       -2.2289087804       -0.8993835880
 C         -4.9751330811       -1.0724951847       -0.5707580244
 S         -5.9632571688        0.3731370424       -0.3065361334
 C         -4.7832028840        1.4815166862        0.4097930363
 C         -5.2936104966        2.6415093963        0.9690151934
 C         -4.4538958235        3.5872562955        1.5294973732
 C         -3.0929878293        3.3489508480        1.5411542870
 C         -2.5818419801        2.1850363684        0.9952898312
 C         -3.4097194316        1.2282275150        0.4051192192
 H          1.1090052868       -1.3710958835        1.6027259710
 H          2.8304781161       -0.7168382580       -2.8323963579
 H          4.3769811479        0.3673109596       -4.4168811992
 H          6.0740879955        1.9627050144       -3.5944965459
 H          6.2660986356        2.4130164479       -1.1685023874
 H          5.8626911802       -0.3069573935        3.1567120767
 H          5.3958684113       -2.6631935173        3.7526057399
 H          3.7654106579       -3.9640494447        2.4279993008
 H          2.5519381310       -2.8937646894        0.5688961983
 H         -1.1698992001        1.2358664480       -1.8755529644
 H         -1.8353300959       -2.2449381708       -0.8884768371
 H         -3.0465244510       -4.2650100535       -1.4813543073
 H         -5.5295278687       -4.2860321918       -1.4709049628
 H         -6.7414288834       -2.1973152182       -0.9161846830
 H         -6.3619747860        2.7937557351        0.9485370923
 H         -4.8619500342        4.4912872109        1.9523537205
 H         -2.4153334521        4.0657721910        1.9790368119
 H         -1.5173610309        2.0181579350        1.0274797648
  54
        -95.24524284
 F         -1.4596041972       -0.2608743484        2.2769669879
 C         -0.7408405662       -0.1408528356        1.1467841676
 C          0.6359229407       -0.2050004373        1.2249434729
 C          1.4031973574       -0.0835920438        0.0695467821
 N          2.8107109333       -0.1314065011        0.0929679653
 C          3.4785454629        1.0742455842       -0.1483650027
 C          2.7774791622        2.2771703714       -0.0568361413
 C          3.3905653094        3.4906993795       -0.3122462098
 C          4.7325097704        3.5379573607       -0.6399545854
 C          5.4538823318        2.3592312883       -0.6927993907
 C          4.8376630468        1.1410280598       -0.4543950951
 S          5.8508764784       -0.3030137897       -0.5667283924
 C          4.8265102275       -1.5061786900        0.2319461996
 C          5.4498469678       -2.6882361205        0.5999891441
 C          4.7213946628       -3.7397209013        1.1250687737
 C          3.3532371994       -3.6018181019        1.2611229198
 C          2.7307543052       -2.4151241348        0.9154376143
 C          3.4526665526       -1.3300223573        0.4179118347
 C          0.7349737910        0.1134427540       -1.1410873929
 F          1.4539911728        0.2372072523       -2.2706836386
 C         -0.6409046730        0.1816038824       -1.2181781417
 C         -1.4072765394        0.0550802678       -0.0629547135
 N         -2.8170246821        0.1138306722       -0.0919775016
 C         -3.4992206300       -1.0963186494        0.0572907569
 C         -2.7996844756       -2.2979184050       -0.0612571886
 C         -3.4311088209       -3.5193679906        0.0922731380
 C         -4.7887309657       -3.5751203276        0.3447085088
 C         -5.5046682911       -2.3950781514        0.4334285866
 C         -4.8715697026       -1.1698436262        0.2977085302
 S         -5.8870169946        0.2688454949        0.4606388011
 C         -4.8071957303        1.5361381258       -0.1414959348
 C         -5.3926399555        2.7682541462       -0.3856467519
 C         -4.6271748337        3.8534258417       -0.7723809396
 C         -3.2612098770        3.6943559387       -0.9037659305
 C         -2.6752145151        2.4610059860       -0.6774967596
 C         -3.4325663016        1.3491493234       -0.3080798052
 H          1.1121271116       -0.3305124749        2.1841431944
 H          1.7341999505        2.2644640402        0.2190738731
 H          2.8106904284        4.3983314191       -0.2457019605
 H          5.2180117173        4.4787872870       -0.8438347299
 H          6.5059538621        2.3646445483       -0.9330505992
 H          6.5146398072       -2.7748802856        0.4471139563
 H          5.2156982658       -4.6562991288        1.4041387156
 H          2.7556007223       -4.4172470170        1.6385108404
 H          1.6603156339       -2.3451071465        1.0186359659
 H         -1.1191462892        0.3216883523       -2.1744473603
 H         -1.7426892297       -2.2780555777       -0.2777375587
 H         -2.8523475156       -4.4260862887        0.0062100237
 H         -5.2893991538       -4.5222830388        0.4659010865
 H         -6.5673128217       -2.4055662421        0.6215602240
 H         -6.4587426562        2.8650616555       -0.2485607886
 H         -5.0934863667        4.8085710687       -0.9529034338
 H         -2.6365821342        4.5285632735       -1.1839195816
 H         -1.6056881305        2.3708690508       -0.7767983270
  54
        -95.24513259
 F         -1.4006017645        0.2163596760        2.3045496895
 C         -0.7098388468        0.1261714319        1.1543693083
 C          0.6685846494        0.0806739935        1.2087179765
 C          1.4073982306       -0.0080597670        0.0321297280
 N          2.8170023030       -0.0538565344        0.0341519252
 C          3.5323350525        1.0944278073        0.3853234883
 C          2.8760016174        2.2118863945        0.9009786379
 C          3.5685610027        3.3523751867        1.2686530260
 C          4.9425937040        3.4093280720        1.1368111586
 C          5.6081697985        2.3227923145        0.5993906006
 C          4.9156330661        1.1870568791        0.2111192741
 S          5.8681875033       -0.0722086234       -0.5887558499
 C          4.7633033885       -1.4490248811       -0.4986549413
 C          5.3049598868       -2.7021925734       -0.7355107678
 C          4.5086418784       -3.8323126043       -0.7106147985
 C          3.1643603583       -3.6999032196       -0.4195873598
 C          2.6248498523       -2.4516796060       -0.1647363966
 C          3.4053407400       -1.2969306491       -0.2177538819
 C          0.7091871831       -0.0724528978       -1.1746075717
 F          1.3994036378       -0.1767074028       -2.3239199485
 C         -0.6698476041       -0.0406555866       -1.2280466030
 C         -1.4076429068        0.0716774131       -0.0530881894
 N         -2.8179152626        0.1071982978       -0.0547331470
 C         -3.4747417751       -1.0545712566        0.3615608904
 C         -2.7585961448       -2.2463843011        0.4752627972
 C         -3.3648069600       -3.4158741865        0.8975450211
 C         -4.7144174865       -3.4335614048        1.1944387753
 C         -5.4478791681       -2.2696696579        1.0552821984
 C         -4.8390791770       -1.0926372400        0.6503342640
 S         -5.8725099602        0.3371968900        0.5376496912
 C         -4.8399486438        1.4446700908       -0.3788789735
 C         -5.4606097405        2.5741907873       -0.8884850801
 C         -4.7299041792        3.5535035954       -1.5362395583
 C         -3.3627871126        3.3956480939       -1.6586726738
 C         -2.7420418502        2.2604095798       -1.1672098868
 C         -3.4651267963        1.2492735439       -0.5339329737
 H          1.1687886014        0.1145690303        2.1632999045
 H          1.8033363374        2.2032809867        1.0039115486
 H          3.0205976418        4.1952650804        1.6599141731
 H          5.4910711523        4.2896769775        1.4307684986
 H          6.6772114867        2.3458595318        0.4537091742
 H          6.3594751763       -2.7733632212       -0.9521910374
 H          4.9379037753       -4.8009496171       -0.9102782839
 H          2.5244617544       -4.5678573625       -0.3825072189
 H          1.5765527601       -2.3733029934        0.0787349453
 H         -1.1710290526       -0.1022093151       -2.1808574205
 H         -1.7079057418       -2.2603912761        0.2300091068
 H         -2.7727980432       -4.3134814550        0.9859953190
 H         -5.1957407636       -4.3400700556        1.5244996881
 H         -6.5048994752       -2.2528298888        1.2718161520
 H         -6.5254473389        2.6799467570       -0.7496580654
 H         -5.2231103711        4.4302747794       -1.9239165380
 H         -2.7642923074        4.1553117798       -2.1374093835
 H         -1.6721617226        2.1722712932       -1.2657869659
  54
        -95.24513035
 F         -1.4068797680        0.9515884964        2.1246058589
 C         -0.7153386019        0.4948446228        1.0657777370
 C          0.6643487833        0.4895059208        1.1256506488
 C          1.4049043413        0.0233345571        0.0428799542
 N          2.8118933541       -0.0149750411        0.0541933447
 C          3.5353353200        1.1816539194        0.0871795853
 C          2.8933313283        2.4005734626        0.3061552587
 C          3.5974689680        3.5906350628        0.3645702914
 C          4.9703314354        3.5996651775        0.2092183934
 C          5.6206736090        2.4069275557       -0.0481719189
 C          4.9157722113        1.2161742398       -0.1288666835
 S          5.8497420402       -0.2059063259       -0.6175394029
 C          4.7461717843       -1.5117171548       -0.1714222595
 C          5.2796884363       -2.7897109859       -0.1132079506
 C          4.4851679878       -3.8725580154        0.2156179503
 C          3.1538457090       -3.6607625708        0.5216320997
 C          2.6239999047       -2.3836141836        0.4820844545
 C          3.3985646350       -1.2850969292        0.1072095498
 C          0.7056937134       -0.4436088978       -1.0735318337
 F          1.3975368768       -0.9059229375       -2.1296708573
 C         -0.6726938218       -0.4465631713       -1.1288927223
 C         -1.4105126365        0.0300457671       -0.0495218710
 N         -2.8237157395        0.0458258470       -0.0675152737
 C         -3.4967159592       -1.1552287524        0.1624224617
 C         -2.7826035202       -2.3509350830        0.2492881644
 C         -3.4180688319       -3.5605428826        0.4690272112
 C         -4.7918393046       -3.6123787190        0.6056466607
 C         -5.5156063386       -2.4355526094        0.5395440791
 C         -4.8815539751       -1.2208651038        0.3322561997
 S         -5.9225842371        0.2108533399        0.3584042204
 C         -4.8111937400        1.4808154198       -0.1715931810
 C         -5.3740998731        2.7193540267       -0.4344459359
 C         -4.5896125647        3.7823849386       -0.8444894201
 C         -3.2317537671        3.5886750630       -1.0104537959
 C         -2.6682235590        2.3499236878       -0.7598795764
 C         -3.4389410708        1.2734023761       -0.3191763977
 H          1.1610085107        0.8291387502        2.0203155072
 H          1.8215849407        2.4312358517        0.4137188098
 H          3.0592813232        4.5104909686        0.5336021684
 H          5.5282395474        4.5203789129        0.2666622577
 H          6.6870307988        2.3828217487       -0.2119730003
 H          6.3260454717       -2.9202070942       -0.3427643686
 H          4.9059895607       -4.8649047098        0.2402091605
 H          2.5177834248       -4.4868115953        0.8001193762
 H          1.5882023950       -2.2378693971        0.7479113540
 H         -1.1752234532       -0.8119778698       -2.0101433889
 H         -1.7086951408       -2.3387194668        0.1538125965
 H         -2.8266397708       -4.4608403298        0.5332083624
 H         -5.2965315365       -4.5503038522        0.7724706043
 H         -6.5879199338       -2.4388346801        0.6619977976
 H         -6.4388874724        2.8368185862       -0.3033578096
 H         -5.0383797677        4.7438706351       -1.0354294428
 H         -2.5989916201        4.3975707737       -1.3417745767
 H         -1.6082388980        2.2174560896       -0.9113633448
  54
        -95.24504831
 F         -1.4101767954        0.9355503842        2.1383590259
 C         -0.7140810017        0.4809971634        1.0824976152
 C          0.6646068744        0.4476260509        1.1568587160
 C          1.4045735876       -0.0322660723        0.0828802624
 N          2.8163096405       -0.0667631172        0.1519092250
 C          3.4921245382        1.1213893588       -0.1381283521
 C          2.7761365110        2.2413860952       -0.5625793940
 C          3.4073969036        3.4402774656       -0.8434990322
 C          4.7796291379        3.5501189366       -0.7260908120
 C          5.5089995207        2.4447752411       -0.3269942708
 C          4.8781853031        1.2473559919       -0.0298137868
 S          5.9194980359       -0.0777755125        0.5082135892
 C          4.8143940135       -1.4576789317        0.4183722687
 C          5.3917748462       -2.7112234114        0.5402993888
 C          4.6097100897       -3.8516485701        0.5724662394
 C          3.2365224609       -3.7229570074        0.4949885697
 C          2.6580093978       -2.4732872056        0.3596942517
 C          3.4307510790       -1.3137474317        0.2961837699
 C          0.7159736008       -0.4657564848       -1.0515192881
 F          1.4128621158       -0.9243502374       -2.1048364321
 C         -0.6624334394       -0.4323559360       -1.1258299661
 C         -1.4027691420        0.0489164219       -0.0525337425
 N         -2.8137084911        0.0791914866       -0.1279610382
 C         -3.4852269834       -1.1161256271        0.1426632915
 C         -2.7743400969       -2.2210735664        0.6121134173
 C         -3.4020098380       -3.4264588753        0.8730546125
 C         -4.7655312684       -3.5568808862        0.6902403675
 C         -5.4907894030       -2.4654551647        0.2475735431
 C         -4.8625859752       -1.2620132791       -0.0300603707
 S         -5.8884413637        0.0465574433       -0.6336475688
 C         -4.8184893616        1.4446896438       -0.4475447952
 C         -5.4132577596        2.6907166831       -0.5608928511
 C         -4.6513293851        3.8446027373       -0.5272315496
 C         -3.2808386123        3.7373310744       -0.3910509873
 C         -2.6857255234        2.4947502101       -0.2619803068
 C         -3.4393998185        1.3214092378       -0.2651774748
 H          1.1645164805        0.7910946486        2.0482873812
 H          1.7054998848        2.1776730396       -0.6760558528
 H          2.8152065439        4.2851433183       -1.1595523659
 H          5.2807763252        4.4793909619       -0.9441708868
 H          6.5826280246        2.4964072710       -0.2301832099
 H          6.4658686737       -2.7752104124        0.6241132052
 H          5.0701291171       -4.8215404040        0.6715109204
 H          2.6010607960       -4.5938677087        0.5408765189
 H          1.5828352532       -2.4044834945        0.3129003312
 H         -1.1625524123       -0.7766149168       -2.0166890372
 H         -1.7113797319       -2.1395818058        0.7772053166
 H         -2.8146122985       -4.2599146456        1.2261813766
 H         -5.2635007297       -4.4915920299        0.8922172875
 H         -6.5573780524       -2.5338385431        0.0988734954
 H         -6.4831010829        2.7385203511       -0.6934081933
 H         -5.1243094904        4.8089037966       -0.6210978438
 H         -2.6603645723        4.6200745266       -0.3844697274
 H         -1.6125400769        2.4437442010       -0.1691671607
  54
        -95.24503707
 F         -1.4558012868        0.6830338938        2.1775939075
 C         -0.7358003716        0.3314717725        1.0986289492
 C          0.6422568608        0.3439235957        1.1835345827
 C          1.4057697159       -0.0168671432        0.0804785960
 N          2.8187320262       -0.0060030633        0.1577047544
 C          3.4910548001        1.0467869220       -0.4675524776
 C          2.7735821310        2.0334355968       -1.1438967644
 C          3.4109779855        3.0839456091       -1.7803856916
 C          4.7890204270        3.1784728163       -1.7619587582
 C          5.5168136904        2.2238772414       -1.0744955182
 C          4.8804000395        1.1802002542       -0.4227908838
 S          5.9160219861        0.0938537586        0.5164278660
 C          4.8157775624       -1.2555578250        0.8321522702
 C          5.3895223657       -2.4216368631        1.3122368468
 C          4.6074055105       -3.5185556589        1.6264386180
 C          3.2401799206       -3.4419581177        1.4421695851
 C          2.6655596782       -2.2835585368        0.9491800508
 C          3.4362122067       -1.1624281848        0.6395714016
 C          0.7396940977       -0.3812973201       -1.0908627004
 F          1.4590586190       -0.7327969618       -2.1713476176
 C         -0.6378222107       -0.3790883483       -1.1811979622
 C         -1.4048197095       -0.0257607519       -0.0738839416
 N         -2.8125766430        0.0072481529       -0.1155655276
 C         -3.5255701005       -1.1900613332       -0.2279256838
 C         -2.8673918304       -2.3875713887       -0.5085439653
 C         -3.5573791130       -3.5800974665       -0.6396173970
 C         -4.9314987745       -3.6119357849       -0.4986781898
 C         -5.5987439469       -2.4412019938       -0.1883579773
 C         -4.9085986768       -1.2488896948       -0.0364057458
 S         -5.8669409957        0.1393207242        0.5004394091
 C         -4.7604468664        1.4759153823        0.1644409936
 C         -5.3003141931        2.7524053091        0.1772680799
 C         -4.5050370054        3.8585536854       -0.0597547590
 C         -3.1646772508        3.6742460718       -0.3426493974
 C         -2.6275538937        2.3998455664       -0.3731077385
 C         -3.4049441981        1.2749798748       -0.0951382199
 H          1.1228582462        0.6251503980        2.1066308330
 H          1.6962829206        1.9897526684       -1.1685550215
 H          2.8178448725        3.8265239733       -2.2913992202
 H          5.2947605323        3.9883946388       -2.2625538212
 H          6.5930618281        2.2823803332       -1.0206847791
 H          6.4601125251       -2.4496250374        1.4456492390
 H          5.0644065095       -4.4170523025        2.0088194579
 H          2.6077202696       -4.2842671137        1.6766532813
 H          1.5965908103       -2.2505252903        0.8077118789
 H         -1.1137261375       -0.6428109898       -2.1122637469
 H         -1.7943510030       -2.3987819493       -0.6081240931
 H         -3.0077209158       -4.4837304334       -0.8535017958
 H         -5.4782354196       -4.5342548536       -0.6099208045
 H         -6.6674979465       -2.4368796768       -0.0387966784
 H         -6.3527717413        2.8626568831        0.3889986624
 H         -4.9320072402        4.8481541793       -0.0309080749
 H         -2.5267910337        4.5199629174       -0.5481507415
 H         -1.5829911966        2.2777422675       -0.6148894577
  54
        -95.24483799
 F         -1.4321743667        0.3129789932        2.2158212038
 C         -0.7230389796        0.1468347775        1.0872861733
 C          0.6550749437        0.1180404995        1.1589719022
 C          1.4027584056       -0.0503258164       -0.0020200433
 N          2.8174000063       -0.0823896192        0.0372652447
 C          3.4886420348        1.1273172538       -0.1447846306
 C          2.7609736774        2.3138832378       -0.2402036476
 C          3.3874771860        3.5347467406       -0.4205059526
 C          4.7647348031        3.6059001739       -0.4994323347
 C          5.5035558417        2.4404840763       -0.3996542743
 C          4.8792634713        1.2152183363       -0.2305644266
 S          5.9403596431       -0.1992732141       -0.1563751690
 C          4.8103105998       -1.4826784645        0.3008741835
 C          5.3731108416       -2.7100013997        0.6113798811
 C          4.5775270912       -3.7948387425        0.9342079695
 C          3.2050704593       -3.6400076829        0.9411066345
 C          2.6395462825       -2.4123455137        0.6434448166
 C          3.4256134035       -1.3049906740        0.3235258675
 C          0.7266498495       -0.1858836662       -1.2126370537
 F          1.4340508359       -0.3490059894       -2.3417862692
 C         -0.6542748702       -0.1570775979       -1.2843146448
 C         -1.4004249114        0.0107055408       -0.1266541809
 N         -2.8148119495        0.0461001911       -0.1902005432
 C         -3.4983661480       -1.1304903538        0.1263255589
 C         -2.7886262254       -2.2724382707        0.4968380292
 C         -3.4354431475       -3.4551634382        0.8103773167
 C         -4.8144322055       -3.5282050049        0.7696554139
 C         -5.5351404100       -2.4081858830        0.3954292023
 C         -4.8898657721       -1.2275297406        0.0659557770
 S         -5.9157198042        0.1057061590       -0.4849393160
 C         -4.7953346545        1.4723787284       -0.3888497173
 C         -5.3542243928        2.7374684941       -0.4677300755
 C         -4.5543755399        3.8662117642       -0.4654114597
 C         -3.1837062654        3.7164424431       -0.3792070612
 C         -2.6233237230        2.4546341503       -0.2831054872
 C         -3.4134610227        1.3051781720       -0.2817359614
 H          1.1501553634        0.2269311669        2.1108315612
 H          1.6842429647        2.2843881861       -0.1771696428
 H          2.7871538875        4.4282815887       -0.4959343786
 H          5.2627170213        4.5520897989       -0.6374191715
 H          6.5807670459        2.4626727299       -0.4604008577
 H          6.4479177978       -2.8019370272        0.5851767909
 H          5.0281736138       -4.7455491126        1.1690465023
 H          2.5607906302       -4.4720519997        1.1793588380
 H          1.5653759473       -2.3173689053        0.6537488241
 H         -1.1483202435       -0.2648763415       -2.2365099241
 H         -1.7108773717       -2.2430989155        0.5337002681
 H         -2.8492705522       -4.3173576137        1.0887564598
 H         -5.3272615181       -4.4437368051        1.0168751363
 H         -6.6124464768       -2.4375676264        0.3392524532
 H         -6.4275557265        2.8206441693       -0.5433302548
 H         -5.0000258594        4.8454224796       -0.5349419499
 H         -2.5368933439        4.5801698972       -0.3833828679
 H         -1.5504172053        2.3650932993       -0.2151058181
  54
        -95.24474850
 F         -1.4051376725        0.6321674379        2.3019819467
 C         -0.7085051505        0.3926780595        1.1770253701
 C          0.6699251441        0.3468919744        1.2456811022
 C          1.4122111577        0.0710612333        0.1014675132
 N          2.8203170790       -0.0309791524        0.1367367294
 C          3.5437869409        1.0219960376       -0.4281900550
 C          2.8928585166        2.2240621706       -0.7078902209
 C          3.5613608812        3.2936055974       -1.2766313083
 C          4.9094732045        3.1980214404       -1.5647401986
 C          5.5785184031        2.0249476338       -1.2657233174
 C          4.9090448033        0.9481255008       -0.7063542170
 S          5.8783925489       -0.4945847525       -0.3802346886
 C          4.7380162414       -1.5084010373        0.5166711959
 C          5.2609030447       -2.6746826708        1.0533382845
 C          4.4511984153       -3.5762777443        1.7196298067
 C          3.1026309310       -3.3011652428        1.8381408584
 C          2.5787566499       -2.1329099783        1.3126156173
 C          3.3816262088       -1.2029548915        0.6511365022
 C          0.7251636414       -0.1202912363       -1.0976829858
 F          1.4243800342       -0.3754452984       -2.2161379958
 C         -0.6525235908       -0.0648948663       -1.1680733682
 C         -1.3960198412        0.1826464640       -0.0200770682
 N         -2.8074840133        0.1676497390       -0.0827677429
 C         -3.4152817135       -1.0915407579       -0.0677562958
 C         -2.6471669276       -2.2322012645        0.1699618770
 C         -3.2098153686       -3.4963548766        0.1680737548
 C         -4.5642317318       -3.6567398734       -0.0533856577
 C         -5.3470041992       -2.5358004378       -0.2626721121
 C         -4.7841188582       -1.2695113455       -0.2748327796
 S         -5.8812969590        0.0827128803       -0.5861355942
 C         -4.8829706744        1.4619659946       -0.1000500628
 C         -5.5420903792        2.6694111636        0.0631237989
 C         -4.8381149716        3.8280535261        0.3380931489
 C         -3.4609487393        3.7683750900        0.4322511099
 C         -2.8015893427        2.5601424223        0.2884778778
 C         -3.4964144473        1.3760300725        0.0443631170
 H          1.1664977726        0.5065372116        2.1896666520
 H          1.8434934699        2.3251803530       -0.4771660543
 H          3.0187705232        4.2021581134       -1.4874613912
 H          5.4396224084        4.0246104205       -2.0098425534
 H          6.6333954752        1.9228442755       -1.4699554504
 H          6.3150318251       -2.8682940053        0.9261876498
 H          4.8698788067       -4.4819582668        2.1280317649
 H          2.4436748045       -3.9934501439        2.3390832670
 H          1.5208768082       -1.9508873145        1.4117103584
 H         -1.1513714505       -0.2373682219       -2.1080638362
 H         -1.5892578741       -2.1347056980        0.3555273328
 H         -2.5778953136       -4.3530385090        0.3448048810
 H         -5.0109195533       -4.6379383976       -0.0585294115
 H         -6.4092109790       -2.6267917748       -0.4300187767
 H         -6.6154547891        2.6877509500       -0.0481711334
 H         -5.3610620272        4.7631735646        0.4589383326
 H         -2.8860986187        4.6622800551        0.6190681652
 H         -1.7253690765        2.5451733253        0.3569564712
  54
        -95.24418970
 F         -1.3180263406        1.1569239376        2.1597203431
 C         -0.6661651386        0.7241891444        1.0664149941
 C          0.7156574436        0.7013122664        1.0834871017
 C          1.4144282623        0.2282971506       -0.0231125981
 N          2.8110327210        0.0513797170       -0.0262265856
 C          3.6703118953        1.1512994750        0.0273463399
 C          3.1825835597        2.4263385132        0.3114551118
 C          4.0266190303        3.5205685816        0.3901693754
 C          5.3862935925        3.3710542697        0.1935950439
 C          5.8837321313        2.1206506684       -0.1254424603
 C          5.0386819717        1.0273696980       -0.2286086598
 S          5.7742394028       -0.4795403744       -0.7982577555
 C          4.5501644264       -1.6578354525       -0.3123438623
 C          4.9351243193       -2.9889198891       -0.2723192066
 C          4.0331352018       -3.9744064898        0.0847716422
 C          2.7475401712       -3.6120143101        0.4408614085
 C          2.3670234054       -2.2823307714        0.4201189030
 C          3.2482354864       -1.2793408019        0.0136371162
 C          0.6758634813       -0.1704272033       -1.1413588269
 F          1.3306064725       -0.6126812239       -2.2291588509
 C         -0.7027212697       -0.1587924958       -1.1528428305
 C         -1.4004318730        0.2686257763       -0.0266904569
 N         -2.8099339169        0.1757944287        0.0400838037
 C         -3.3514766011       -1.0908474923        0.2743422505
 C         -2.5213454930       -2.2114463788        0.3324658675
 C         -3.0282173262       -3.4797667910        0.5557277122
 C         -4.3860141325       -3.6693770258        0.7236305375
 C         -5.2237728630       -2.5692737370        0.6866082148
 C         -4.7181699047       -1.2958744194        0.4784598360
 S         -5.8912264415        0.0277351228        0.5507686633
 C         -4.9380156241        1.3876358247       -0.0604485201
 C         -5.6362797998        2.5471655900       -0.3552217146
 C         -4.9762858278        3.6749305237       -0.8096737270
 C         -3.6059154575        3.6277932733       -0.9806363190
 C         -2.9075408419        2.4658804484       -0.7023218541
 C         -3.5538828024        1.3242651325       -0.2282895575
 H          1.2416282320        1.0039749094        1.9747327654
 H          2.1242862595        2.5751048572        0.4520912953
 H          3.6091620217        4.4917215532        0.6071629260
 H          6.0519126090        4.2160057596        0.2655328179
 H          6.9349699435        1.9769583032       -0.3225921844
 H          5.9500313995       -3.2389533010       -0.5406443824
 H          4.3364337941       -5.0090264904        0.0924589021
 H          2.0308282172       -4.3599637980        0.7432635845
 H          1.3659524159       -2.0209216063        0.7263046757
 H         -1.2378348803       -0.5037914626       -2.0230448447
 H         -1.4566664033       -2.0971830387        0.2101413805
 H         -2.3479057953       -4.3164467621        0.5966358190
 H         -4.7908819015       -4.6541610507        0.8926227486
 H         -6.2870671780       -2.6801672259        0.8340709302
 H         -6.7058862245        2.5525882245       -0.2114280875
 H         -5.5299164342        4.5744972045       -1.0258088384
 H         -3.0687014016        4.4931994929       -1.3368956195
 H         -1.8392944040        2.4442488257       -0.8548625178
