  68
       -115.18670226
 C          2.5027106156       -5.3282724125       -0.9879052261
 C          3.8440546448       -5.3370938681       -0.6164773918
 C          4.4934971591       -4.1660552945       -0.2845910821
 C          3.7976255285       -2.9600229779       -0.3120092115
 C          2.4418990100       -2.9733111825       -0.6798301098
 C          1.7906320245       -4.1450990410       -1.0261361174
 S          1.7181336378       -1.3810378661       -0.6482323570
 C          3.2408270024       -0.6807913423       -0.1358970416
 C          4.2696692000       -1.6311368716       -0.0206733673
 C          5.5735830767       -1.2318928416        0.2950411012
 C          5.8778334212        0.1000460396        0.4546269732
 C          4.8639176642        1.0502328832        0.3395049377
 C          4.8599159992        2.4862589994        0.3833477974
 C          5.8506787440        3.4381731445        0.5898818285
 C          5.4990347526        4.7729046242        0.5625275664
 C          4.1814171849        5.1655817281        0.3365445566
 C          3.1783998830        4.2373950968        0.1300120048
 C          3.5296821287        2.8981402768        0.1511466361
 N          2.7261803219        1.7784432188        0.0058707647
 C          1.3394164755        1.7816259320       -0.0221276729
 C          0.5903176937        0.9470919301        0.8145997312
 N         -0.7248874430        0.9642984898        0.7956386234
 C         -1.3350269854        1.7873300050       -0.0562524925
 N         -2.7176764358        1.7718016688       -0.0736582582
 C         -3.5345566053        2.8842885077       -0.2247553800
 C         -3.2078952542        4.2315076215       -0.2695239147
 C         -4.2387655972        5.1450785694       -0.3915413485
 C         -5.5684167581        4.7380687192       -0.4559970217
 C         -5.9030897091        3.4019092870       -0.3689022258
 C         -4.8829153549        2.4681679860       -0.2419820389
 C         -4.8789006336        1.0419065229       -0.0809901036
 C         -5.9146906432        0.1101622763       -0.0418314454
 C         -5.6097626872       -1.2201374920        0.1151538982
 C         -4.2780582440       -1.6319974066        0.2293419530
 C         -3.7965569589       -2.9790555493        0.3854761129
 C         -4.5184514569       -4.1676220161        0.4674278429
 C         -3.8480289832       -5.3627674639        0.6236697058
 C         -2.4585905214       -5.3954402228        0.7052436617
 C         -1.7215161842       -4.2303794500        0.6270757079
 C         -2.3957414143       -3.0313485296        0.4616090137
 S         -1.6542658687       -1.4523364395        0.3458403186
 C         -3.2237581364       -0.6982494944        0.1968087620
 C         -3.5282284669        0.6494404085        0.0436199065
 C         -0.5817619227        2.6300255754       -0.8852114321
 N          0.7335579114        2.6290495589       -0.8528956297
 C          3.5297355557        0.6577244432        0.0909079299
 H          2.0128842011       -6.2538673990       -1.2503052150
 H          4.3820006554       -6.2729151240       -0.5914258689
 H          5.5353130657       -4.1783441249       -0.0026460763
 H          0.7527460939       -4.1249088155       -1.3211846630
 H          6.3449767892       -1.9811324281        0.3809997487
 H          6.8902352694        0.4144490690        0.6545337240
 H          6.8713702917        3.1358563908        0.7678673620
 H          6.2544884854        5.5283803243        0.7183020791
 H          3.9394595605        6.2177445154        0.3210563791
 H          2.1593117651        4.5381547199       -0.0542687949
 H          1.0516423383        0.2811227013        1.5289043228
 H         -2.1874021540        4.5717647905       -0.1875066435
 H         -4.0051240189        6.1983588221       -0.4311277697
 H         -6.3444415192        5.4815134510       -0.5575928202
 H         -6.9342826304        3.0845458121       -0.3887038268
 H         -6.9378194031        0.4381684316       -0.1386660145
 H         -6.3935636255       -1.9607209209        0.1479138748
 H         -5.5961474205       -4.1487347415        0.4100855028
 H         -4.4055581267       -6.2853562245        0.6870281247
 H         -1.9521166959       -6.3402728437        0.8338986293
 H         -0.6447446221       -4.2441809152        0.7005727975
 H         -1.0395342860        3.2916818135       -1.6059430975
