  61
  -96.5315058530000       0.253381204217712      !
 C         -6.1422273365        0.1500496439       -1.5536493066
 C         -5.3319587454       -0.0972291765       -0.2655131728
 C         -6.2723187373       -0.4977460999        0.8874019645
 C         -4.6211626696        1.1817588549        0.1144057518
 C         -5.3578999913        2.3156243680        0.4276046040
 C         -4.7527372207        3.4949601035        0.8228014515
 C         -3.3716424284        3.5484140100        0.9461870304
 C         -2.6149823506        2.4421730660        0.6377181092
 C         -3.2204678122        1.2599738221        0.1803340738
 N         -2.4257569875        0.1847837501       -0.1544104126
 C         -1.0301485065        0.3719391557       -0.2207536247
 C         -0.5234767668        1.2405911588       -1.2104382841
 C          0.8216854709        1.3753276867       -1.3950527750
 C          1.7298129865        0.6672130310       -0.5677726596
 C          1.2457834405       -0.1602247458        0.4643222297
 C          2.1449354080       -0.8209499228        1.3215873647
 C          1.6556698677       -1.6041310174        2.3870331768
 C          0.3035219793       -1.7168258519        2.5943035091
 C         -0.6056741236       -1.0825380425        1.7454036279
 C         -0.1557930177       -0.3146126023        0.6643640419
 C          3.5789976564       -0.7083105535        1.1139471659
 O          4.4092145088       -1.2721148359        1.8206164173
 N          3.9829605985        0.0809375352        0.0456917193
 C          5.3870886119        0.1561980483       -0.2163404587
 C          6.0692228150        1.3442086499       -0.0067067789
 C          7.4219488540        1.4133246193       -0.2882054804
 C          8.0912042841        0.3005770853       -0.7684797793
 C          7.4064981749       -0.8861023188       -0.9684566516
 C          6.0523203145       -0.9610525365       -0.6971640591
 C          3.1519297049        0.8000742734       -0.8058485521
 O          3.6238208340        1.4829665639       -1.7121810881
 C         -2.9699605374       -1.0368522681       -0.5029582032
 C         -2.1234457332       -2.0897709076       -0.8842364063
 C         -2.6345987053       -3.3228403719       -1.2141967448
 C         -4.0063578230       -3.5305690722       -1.1911195127
 C         -4.8475697464       -2.4820511904       -0.8702315103
 C         -4.3607681356       -1.2261881562       -0.5301818319
 H         -6.6875507928       -0.7430397771       -1.8449455431
 H         -5.4725797066        0.4238408485       -2.3669996106
 H         -6.8566611874        0.9557988751       -1.4107389559
 H         -6.8209185425       -1.4025287147        0.6431715219
 H         -5.6951176945       -0.6786187685        1.7921678976
 H         -6.9928418703        0.2885644842        1.0917015555
 H         -6.4347856788        2.2837487921        0.3652231024
 H         -5.3555874894        4.3588885384        1.0548579933
 H         -2.8881250809        4.4489827302        1.2911874645
 H         -1.5441139761        2.4710497374        0.7577820410
 H         -1.2252354700        1.7480544837       -1.8563691781
 H          1.2310268798        1.9979426693       -2.1734269112
 H          2.3735324326       -2.0995342854        3.0205277754
 H         -0.0712919869       -2.3122393951        3.4133893650
 H         -1.6650632434       -1.1888610131        1.9251487940
 H          5.5373118318        2.2067577641        0.3645837087
 H          7.9540106208        2.3397191497       -0.1306442973
 H          9.1472201729        0.3578889299       -0.9869853483
 H          7.9259811677       -1.7561501430       -1.3417418031
 H          5.5078184024       -1.8802814963       -0.8518443085
 H         -1.0599686368       -1.9263498157       -0.9233145527
 H         -1.9652367275       -4.1203136057       -1.4965578835
 H         -4.4175260809       -4.4957831269       -1.4419092238
 H         -5.9131720174       -2.6498679336       -0.8934104038
  61
  -96.5314374867000       0.235697740789976      !
 C         -6.2968394919        0.1558314863       -1.2942321183
 C         -5.3376378369       -0.0640769576       -0.1081079881
 C         -6.1330208743       -0.4260736143        1.1615549121
 C         -4.5793252439        1.2168909240        0.1561250520
 C         -5.2743591509        2.3721746407        0.4862986012
 C         -4.6255333381        3.5547276183        0.7917216659
 C         -3.2387831318        3.5883097170        0.8104600864
 C         -2.5229798564        2.4586375869        0.4892585050
 C         -3.1762446670        1.2720185290        0.1169528797
 N         -2.4269048847        0.1696848586       -0.2373432433
 C         -1.0278875437        0.3045001750       -0.3390996236
 C         -0.5081034950        1.1580435712       -1.3353810318
 C          0.8387073601        1.2853733480       -1.5116716790
 C          1.7376480822        0.5863886466       -0.6664972994
 C          1.2414008721       -0.2474238728        0.3543549085
 C          2.1319632266       -0.9099688610        1.2191460082
 C          1.6334835371       -1.7177439431        2.2613409878
 C          0.2795351811       -1.8402127553        2.4487808292
 C         -0.6212206769       -1.1891708649        1.6037439699
 C         -0.1625099816       -0.4034112497        0.5394442372
 C          3.5685370772       -0.7613488141        1.0558888014
 O          4.3879920198       -1.3139775100        1.7833523837
 N          3.9867452160        0.0569893960        0.0146308585
 C          5.3968273665        0.2111592160       -0.1650344866
 C          5.9874821437        1.4462404070        0.0536337929
 C          7.3503293152        1.5941454268       -0.1305706350
 C          8.1215053517        0.5125423443       -0.5211992831
 C          7.5276338606       -0.7202422434       -0.7322211638
 C          6.1638287572       -0.8740827328       -0.5598559891
 C          3.1628725092        0.7473050627       -0.8675777020
 O          3.6431662355        1.4393258424       -1.7623815633
 C         -3.0199918661       -1.0417932663       -0.5367316904
 C         -2.2232755457       -2.1100919523       -0.9786170626
 C         -2.7779184992       -3.3376666780       -1.2537313846
 C         -4.1458087180       -3.5245433207       -1.1126157348
 C         -4.9424036456       -2.4605072040       -0.7338510236
 C         -4.4109392120       -1.2086403871       -0.4509753534
 H         -5.7298361548        0.4066912367       -2.1887905577
 H         -6.9885247487        0.9671698483       -1.0871321459
 H         -6.8758650996       -0.7405388599       -1.4957698077
 H         -5.4517594582       -0.5775937434        1.9965741097
 H         -6.8252018357        0.3683218505        1.4241344205
 H         -6.7029991112       -1.3384796824        1.0133342000
 H         -6.3530158222        2.3542303425        0.5112749792
 H         -5.1969841049        4.4361358762        1.0368969525
 H         -2.7173117713        4.4916563655        1.0858817819
 H         -1.4464575833        2.4758297272        0.5342858737
 H         -1.2027072982        1.6658612071       -1.9888110485
 H          1.2569579477        1.9010176452       -2.2909176170
 H          2.3457132783       -2.2197453089        2.8959371471
 H         -0.1035525296       -2.4535781641        3.2506016573
 H         -1.6814694830       -1.3014321881        1.7732094636
 H          5.3776820327        2.2832063927        0.3579670795
 H          7.8105813488        2.5568921015        0.0352452987
 H          9.1857925503        0.6304091374       -0.6610819786
 H          8.1266194221       -1.5660138338       -1.0361112410
 H          5.6913168105       -1.8305238112       -0.7227809436
 H         -1.1644534500       -1.9610263563       -1.1070999294
 H         -2.1466408464       -4.1475398065       -1.5844291528
 H         -4.5900511842       -4.4860755339       -1.3168992310
 H         -6.0081032812       -2.6132648466       -0.6612806818
  61
  -96.5313752969000       0.220686093241112      !
 C         -6.3468797759        0.5654097795       -1.0235716352
 C         -5.3292487064       -0.1129381215       -0.0859706416
 C         -6.0621191697       -0.8694376566        1.0393870971
 C         -4.4589162146        0.9592485089        0.5295819133
 C         -5.0440952354        1.9754710015        1.2741702435
 C         -4.3005665838        3.0089221406        1.8119255556
 C         -2.9337368164        3.0617256884        1.5771430724
 C         -2.3266072650        2.0682383118        0.8460943845
 C         -3.0679649734        0.9861511298        0.3453285990
 N         -2.4211469663       -0.0106935283       -0.3592620402
 C         -1.0197344168        0.0372026952       -0.4980614235
 C         -0.4756215166        0.2436443793       -1.7830622245
 C          0.8736498609        0.3364042077       -1.9631862362
 C          1.7511535614        0.1969347643       -0.8578879744
 C          1.2313201673       -0.0390429603        0.4294010152
 C          2.1022299983       -0.2215012059        1.5195045272
 C          1.5819486096       -0.4861200691        2.8023163389
 C          0.2260383131       -0.5934262934        2.9855134629
 C         -0.6555214735       -0.4178546389        1.9175397556
 C         -0.1757941696       -0.1237739897        0.6353919481
 C          3.5413539916       -0.1374943685        1.3356528642
 O          4.3422530526       -0.2453958516        2.2594419284
 N          3.9833850079        0.1089226542        0.0424689445
 C          5.3966073035        0.1858067625       -0.1559364863
 C          5.9704741948        1.3804510858       -0.5627622018
 C          7.3379765404        1.4496440287       -0.7588125884
 C          8.1300274580        0.3350725985       -0.5412145666
 C          7.5526214564       -0.8541135059       -0.1300709885
 C          6.1846907723       -0.9344646612        0.0588470537
 C          3.1796835184        0.2801125400       -1.0798016170
 O          3.6791422248        0.4654139895       -2.1872946290
 C         -3.1170518131       -1.0425686595       -0.9539118942
 C         -2.4104624652       -2.0659580656       -1.6069281184
 C         -3.0746122316       -3.0916912600       -2.2382700483
 C         -4.4607958419       -3.1363622748       -2.2105734812
 C         -5.1599162275       -2.1639146898       -1.5190884041
 C         -4.5180203030       -1.1133265078       -0.8780095475
 H         -5.8247789582        1.1062796500       -1.8102480658
 H         -6.9676809682        1.2690629547       -0.4772064166
 H         -6.9968336042       -0.1712857979       -1.4862972755
 H         -6.7298547444       -1.6213301055        0.6293524428
 H         -5.3404395406       -1.3664678385        1.6845183052
 H         -6.6496268109       -0.1855563816        1.6444920292
 H         -6.1104455504        1.9658266978        1.4395599304
 H         -4.7854841670        3.7782840605        2.3919285399
 H         -2.3445954877        3.8806440039        1.9591883652
 H         -1.2690271940        2.1190473939        0.6489707633
 H         -1.1555389755        0.3765813178       -2.6121382680
 H          1.3098485656        0.5271082574       -2.9299145769
 H          2.2791222457       -0.6043682111        3.6158820205
 H         -0.1736630808       -0.8046545690        3.9660749892
 H         -1.7177572269       -0.5025964262        2.0903176138
 H          5.3446764799        2.2437360028       -0.7297978268
 H          7.7853388310        2.3788899947       -1.0788798668
 H          9.1977657229        0.3934487251       -0.6919852015
 H          8.1676196436       -1.7251604585        0.0408850699
 H          5.7251320003       -1.8573896488        0.3778341736
 H         -1.3332563602       -2.0508110657       -1.6002380472
 H         -2.5125314202       -3.8632111456       -2.7408757146
 H         -4.9919076412       -3.9354530469       -2.7033088897
 H         -6.2359334238       -2.2334667978       -1.4773300661
  61
  -96.5309919975000       0.147103416260548      !
 C         -5.9715713438        0.2619605699       -1.7676748475
 C         -5.3376331421       -0.0003297570       -0.3869501976
 C         -6.4344393228       -0.2780540111        0.6584477135
 C         -4.5693208793        1.2315022847        0.0331054153
 C         -5.2390531354        2.4235498760        0.2714249422
 C         -4.5761656593        3.5631430066        0.6904896269
 C         -3.2072010049        3.5178717820        0.9124972366
 C         -2.5150596537        2.3542405185        0.6711648227
 C         -3.1746498120        1.2109430414        0.1903699531
 N         -2.4340764366        0.0802267321       -0.0838008360
 C         -1.0369292884        0.2300996938       -0.1953524284
 C         -0.5599164447        1.0702808799       -1.2256876403
 C          0.7778205241        1.2187984495       -1.4427557253
 C          1.7117272570        0.5573218794       -0.6063061157
 C          1.2596833100       -0.2425495115        0.4613573059
 C          2.1866193395       -0.8506434332        1.3275511304
 C          1.7321465170       -1.6119404275        2.4241484753
 C          0.3864152738       -1.7420703493        2.6610489555
 C         -0.5502806038       -1.1515445723        1.8104483000
 C         -0.1358273372       -0.4152529226        0.6927642171
 C          3.6153998249       -0.7060051969        1.0996286445
 O          4.4649454027       -1.2560352994        1.7937869801
 N          3.9880253209        0.0758371872        0.0143437499
 C          5.3876405741        0.2276507713       -0.2342254229
 C          6.1827503675        0.9086854938        0.6741609892
 C          7.5347052923        1.0575094233        0.4211739157
 C          8.0880927693        0.5376697290       -0.7365183793
 C          7.2889279885       -0.1399947049       -1.6415679577
 C          5.9382049906       -0.3010657281       -1.3916960532
 C          3.1267693456        0.7377592000       -0.8537362769
 O          3.5680145329        1.4412455538       -1.7596081301
 C         -3.0426443468       -1.1242300762       -0.3841463118
 C         -2.2564574017       -2.2614582327       -0.6242420944
 C         -2.8376354142       -3.4727118999       -0.9188240483
 C         -4.2185579617       -3.5733415256       -1.0062669263
 C         -4.9955750545       -2.4460860180       -0.8180424263
 C         -4.4391000416       -1.2122223658       -0.5053123598
 H         -6.5585775882       -0.5929044683       -2.0913721899
 H         -5.1930598758        0.4432127804       -2.5065959575
 H         -6.6208536304        1.1324061320       -1.7324352565
 H         -5.9826025241       -0.4618374097        1.6312188872
 H         -7.1091862855        0.5679115289        0.7473549275
 H         -7.0233354968       -1.1475646771        0.3829149983
 H         -6.3072752194        2.4718961281        0.1265284355
 H         -5.1272338185        4.4742254023        0.8634427651
 H         -2.6834057815        4.3868567934        1.2788441301
 H         -1.4553432401        2.3062156692        0.8633558098
 H         -1.2822828253        1.5471547483       -1.8721729756
 H          1.1632696756        1.8221583152       -2.2480323341
 H          2.4709212394       -2.0738210265        3.0589283981
 H          0.0381846306       -2.3170900713        3.5060310039
 H         -1.6040152494       -1.2708403502        2.0138694528
 H          5.7414338324        1.3122933875        1.5725007190
 H          8.1558048328        1.5860519479        1.1290089326
 H          9.1426672922        0.6606102080       -0.9338366370
 H          7.7174496387       -0.5471037931       -2.5452472599
 H          5.3059697572       -0.8255153039       -2.0920138039
 H         -1.1838309514       -2.1837468607       -0.5792905326
 H         -2.2143917779       -4.3365586016       -1.0896344542
 H         -4.6846829880       -4.5181939498       -1.2377652873
 H         -6.0654264920       -2.5335510995       -0.9268011448
  61
  -96.5303029709000       7.095255807993250E-002 !
 C         -6.3435774125        0.1084675699       -1.2082371430
 C         -5.3310374266       -0.0773010959       -0.0616983096
 C         -6.0656147713       -0.4219272642        1.2490331873
 C         -4.5764004897        1.2162764999        0.1465194342
 C         -5.2728506134        2.3744323382        0.4632735185
 C         -4.6269865748        3.5699878129        0.7204005823
 C         -3.2405944843        3.6145364482        0.7048968749
 C         -2.5231668024        2.4813931226        0.3998371985
 C         -3.1748318481        1.2800326848        0.0753800699
 N         -2.4260446305        0.1725931839       -0.2640268826
 C         -1.0267282979        0.3012711841       -0.3697511444
 C         -0.5018344717        1.1322745226       -1.3816134610
 C          0.8460785542        1.2548894242       -1.5544535607
 C          1.7400937558        0.5696916761       -0.6934998673
 C          1.2389496359       -0.2436909636        0.3419255379
 C          2.1237382741       -0.8929542848        1.2235446779
 C          1.6192436831       -1.6800368615        2.2781025235
 C          0.2641104010       -1.7948265204        2.4626958020
 C         -0.6310034169       -1.1578969836        1.6013793458
 C         -0.1660987342       -0.3927217369        0.5248058719
 C          3.5608870183       -0.7525075493        1.0598129022
 O          4.3830775271       -1.3088641922        1.7822725216
 N          3.9797549275        0.0509309432        0.0111584610
 C          5.3943421058        0.2083146623       -0.1582348149
 C          6.0531203509        1.2357729347        0.4976159451
 C          7.4178594432        1.3884042998        0.3304306262
 C          8.1193953876        0.5189766617       -0.4872199420
 C          7.4560668852       -0.5061918905       -1.1395109051
 C          6.0912368675       -0.6649623617       -0.9773288230
 C          3.1665970982        0.7287115440       -0.8860899952
 O          3.6602732244        1.4206636051       -1.7745236275
 C         -3.0189532480       -1.0453347130       -0.5358212142
 C         -2.2248617556       -2.1145405443       -0.9803832616
 C         -2.7777010097       -3.3483283510       -1.2297935598
 C         -4.1412759981       -3.5413128397       -1.0578412053
 C         -4.9361751659       -2.4777088042       -0.6744124067
 C         -4.4066488752       -1.2190948653       -0.4191874669
 H         -5.8199020875        0.3547602534       -2.1299594191
 H         -7.0396839762        0.9111173394       -0.9836735004
 H         -6.9161901594       -0.7995087965       -1.3714129128
 H         -5.3473237257       -0.5419382617        2.0576200669
 H         -6.7598203215        0.3672222285        1.5218316553
 H         -6.6240533116       -1.3474459687        1.1457632460
 H         -6.3503237091        2.3484787076        0.5162349291
 H         -5.1999040083        4.4534017179        0.9551565263
 H         -2.7201625770        4.5291812711        0.9422357166
 H         -1.4463252753        2.5085726353        0.4203906066
 H         -1.1931250896        1.6277585968       -2.0479435436
 H          1.2688144370        1.8557371219       -2.3427220447
 H          2.3276251899       -2.1720922460        2.9245547626
 H         -0.1239732714       -2.3913439728        3.2748257223
 H         -1.6921304517       -1.2657737168        1.7680394544
 H          5.4947595163        1.9071879009        1.1329231674
 H          7.9332377921        2.1886024651        0.8404979289
 H          9.1845625576        0.6407130043       -0.6163151501
 H          8.0015548481       -1.1855346907       -1.7775438862
 H          5.5630319947       -1.4609640044       -1.4807325013
 H         -1.1696569271       -1.9605049126       -1.1314370819
 H         -2.1487156075       -4.1584361611       -1.5641052280
 H         -4.5839323827       -4.5077098446       -1.2411887951
 H         -5.9988315133       -2.6366173208       -0.5748207967
  61
  -96.5302405323000       6.641608381070618E-002 !
 C         -6.1205473439       -0.0129185302       -1.5947338997
 C         -5.2878736844       -0.2132527987       -0.3132521652
 C         -6.1868515217       -0.7109396615        0.8353468966
 C         -4.6855630493        1.1126375121        0.0925517054
 C         -5.5151042952        2.1803675955        0.4058938380
 C         -5.0122294160        3.3977115905        0.8280291482
 C         -3.6421504636        3.5579456662        0.9790199025
 C         -2.7950460502        2.5175062515        0.6764078297
 C         -3.2969144184        1.2968401464        0.1959226017
 N         -2.4149985676        0.2865813640       -0.1194833596
 C         -1.0309619761        0.5528139661       -0.1198925507
 C         -0.5158295097        1.4435147511       -1.0853019185
 C          0.8318124188        1.5713704915       -1.2608557119
 C          1.7323963912        0.8253864841       -0.4575461153
 C          1.2385050435        0.0017018206        0.5726966645
 C          2.1278621360       -0.6872000522        1.4171816937
 C          1.6284630701       -1.4555849613        2.4886281670
 C          0.2753687432       -1.5402949999        2.7032845910
 C         -0.6252168435       -0.8926113909        1.8549096257
 C         -0.1639697109       -0.1317938412        0.7744538319
 C          3.5590909131       -0.6396722299        1.1725683608
 O          4.3809985808       -1.2305599901        1.8661986964
 N          3.9694135148        0.1106803175        0.0769064875
 C          5.3534534818        0.0384018261       -0.2725500043
 C          5.8751423276       -1.1741961639       -0.6995799965
 C          7.2085745494       -1.2598731129       -1.0544209886
 C          8.0165887269       -0.1370290425       -0.9944097943
 C          7.4902242064        1.0717902419       -0.5721943858
 C          6.1590612402        1.1636630452       -0.2052094387
 C          3.1522340673        0.8879271517       -0.7379324713
 O          3.6280616674        1.5464102407       -1.6597364888
 C         -2.8562274457       -0.9624941905       -0.5181950774
 C         -1.9236806686       -1.9384803242       -0.9040720663
 C         -2.3316086413       -3.1939969163       -1.2883776642
 C         -3.6840061837       -3.5021750797       -1.3180284033
 C         -4.6091880476       -2.5294222938       -0.9903907972
 C         -4.2270387235       -1.2535331288       -0.5950881989
 H         -6.8865419900        0.7421226581       -1.4434424175
 H         -6.6078769210       -0.9378797238       -1.8887212223
 H         -5.4756375409        0.3097496685       -2.4100125788
 H         -6.6218313107       -1.6764795873        0.5942566050
 H         -5.6014512772       -0.8158379629        1.7469214225
 H         -6.9959664013       -0.0117277300        1.0250369385
 H         -6.5847526969        2.0638228283        0.3237352037
 H         -5.6857932480        4.2079397235        1.0593398071
 H         -3.2382207912        4.4896785725        1.3430304188
 H         -1.7320869491        2.6268680562        0.8197801970
 H         -1.2102142300        1.9647023751       -1.7282716089
 H          1.2476736644        2.2054607097       -2.0264357329
 H          2.3393452185       -1.9680126454        3.1164373062
 H         -0.1069649002       -2.1263366248        3.5256224189
 H         -1.6863461646       -0.9796674710        2.0356445127
 H          5.2353108824       -2.0424800890       -0.7458609520
 H          7.6142931607       -2.2047539215       -1.3843335739
 H          9.0564266603       -0.2048754901       -1.2777786175
 H          8.1188065845        1.9485109097       -0.5246668340
 H          5.7410574583        2.1020688137        0.1242881130
 H         -0.8743036184       -1.6988380762       -0.9084716716
 H         -1.5959470626       -3.9295608980       -1.5739432982
 H         -4.0145118471       -4.4853771506       -1.6140133726
 H         -5.6583153524       -2.7741738899       -1.0508380263
  61
  -96.5279304683000       5.762903600012468E-003 !
 C         -6.4713549187       -0.0046036353       -1.0353823864
 C         -5.3177361175       -0.1057754333       -0.0055742565
 C         -5.8776508675       -0.4215023921        1.3988880271
 C         -4.5886280043        1.2128445376        0.0987498661
 C         -5.3126806561        2.3677540717        0.3609441378
 C         -4.6923632504        3.5882537193        0.5550691163
 C         -3.3067279614        3.6596238737        0.5339361179
 C         -2.5640466113        2.5292709953        0.2822026049
 C         -3.1894126515        1.2995891380        0.0171836535
 N         -2.4236293861        0.1905325359       -0.2795003199
 C         -1.0257990290        0.3248806926       -0.3769302145
 C         -0.4927760018        1.1554909349       -1.3859520886
 C          0.8558548562        1.2853242695       -1.5443559270
 C          1.7446858738        0.5951365349       -0.6811041141
 C          1.2359276345       -0.2240872511        0.3448865965
 C          2.1171236602       -0.8841005080        1.2210536909
 C          1.6083675436       -1.6767227142        2.2694012954
 C          0.2526753225       -1.7836195669        2.4539216779
 C         -0.6389068469       -1.1395260131        1.5942023229
 C         -0.1700224288       -0.3711551301        0.5219448295
 C          3.5554141841       -0.7633092778        1.0508282425
 O          4.3637598152       -1.3689611886        1.7479556200
 N          3.9874150996        0.0601300347        0.0184432817
 C          5.3987436518        0.2003472173       -0.1519410995
 C          6.1651575861        0.7509817167        0.8641244357
 C          7.5326795267        0.8762041805        0.6979279450
 C          8.1315918736        0.4662496010       -0.4810197218
 C          7.3610161136       -0.0766550059       -1.4952627883
 C          5.9946712690       -0.2167681299       -1.3324937355
 C          3.1717024673        0.7629643970       -0.8625986650
 O          3.6573924917        1.4963747833       -1.7206834140
 C         -3.0039533103       -1.0395381435       -0.5281122225
 C         -2.2060937354       -2.1049077927       -0.9759043115
 C         -2.7500748137       -3.3476555374       -1.1997212692
 C         -4.1086283625       -3.5557115964       -1.0026595625
 C         -4.9093576976       -2.4964480481       -0.6203600426
 C         -4.3862121945       -1.2302398553       -0.3901220936
 H         -6.3448199891       -0.7349822629       -1.8304436001
 H         -6.4906869576        0.9789597653       -1.4975445824
 H         -7.4344460100       -0.1786738068       -0.5630819986
 H         -6.5606297127        0.3589182667        1.7235932413
 H         -6.4067786166       -1.3707632576        1.3946960551
 H         -5.0640351808       -0.4852828855        2.1196241629
 H         -6.3891748177        2.3109582935        0.4193147418
 H         -5.2823965742        4.4702590411        0.7486519245
 H         -2.8054932457        4.5954478862        0.7260229009
 H         -1.4880433681        2.5825234012        0.3005740699
 H         -1.1787836947        1.6445684492       -2.0623201019
 H          1.2839814994        1.8907967333       -2.3262393082
 H          2.3135412032       -2.1796769164        2.9110157445
 H         -0.1388654955       -2.3817769965        3.2631527178
 H         -1.7003109586       -1.2481933188        1.7580315437
 H          5.6899768010        1.0700314028        1.7789005913
 H          8.1302911702        1.3004927188        1.4909861896
 H          9.1986949351        0.5703167851       -0.6098457937
 H          7.8247475809       -0.3980445782       -2.4160204019
 H          5.3871920473       -0.6413311004       -2.1167578184
 H         -1.1557021223       -1.9415105564       -1.1495978108
 H         -2.1175303955       -4.1548410380       -1.5345933847
 H         -4.5413880528       -4.5303722680       -1.1647786860
 H         -5.9704972813       -2.6555007900       -0.5013186055
