  57
  -90.0196651230000       0.474420248951539      !
 C          4.9687148515       -3.2423950969        0.4475789946
 C          3.8434660871       -3.0526115855        1.2338085688
 C          3.1308599400       -1.8733420031        1.1594157011
 C          3.5377013644       -0.8671838528        0.2842532627
 N          2.8116291415        0.3279579155        0.2019588922
 C          3.4912382938        1.5380606620        0.0832217002
 C          4.7102568940        1.7304587497        0.7395653197
 C          5.3796967176        2.9314202943        0.6219065018
 C          4.8503196278        3.9598011691       -0.1433344419
 C          3.6424196665        3.7743284976       -0.7979081439
 C          2.9656648698        2.5761654897       -0.6913030825
 C          1.4335101010        0.2923707983        0.2103792535
 C          0.6824146901        1.3509118947        0.7941371526
 C         -0.6803215241        1.3513603739        0.7944668696
 C         -1.4325610213        0.2937085160        0.2103709420
 N         -2.8105975964        0.3288532429        0.2040742369
 C         -3.4926910176        1.5375831814        0.0884060667
 C         -2.9682349847        2.5813371448       -0.6793534701
 C         -3.6486157498        3.7778197508       -0.7820901436
 C         -4.8595890451        3.9559427043       -0.1312047033
 C         -5.3882220785        2.9218738047        0.6270611492
 C         -4.7147366126        1.7229718488        0.7414086100
 C         -3.5350168071       -0.8679663353        0.2817893883
 C         -3.1326292441       -1.8718171943        1.1616106395
 C         -3.8425180738       -3.0530195248        1.2317018904
 C         -4.9604491618       -3.2466713718        0.4358380519
 C         -5.3673208703       -2.2473519946       -0.4337123688
 C         -4.6617587013       -1.0632653155       -0.5143703326
 C         -0.7199735014       -0.7900380154       -0.3463587045
 N         -1.2403823973       -1.8442686115       -0.9660865171
 S         -0.0014614959       -2.7871129790       -1.5220366087
 N          1.2398262771       -1.8448377983       -0.9667096245
 C          0.7199891861       -0.7906734054       -0.3469252762
 C          4.6715940507       -1.0588593574       -0.5029858400
 C          5.3799347818       -2.2407760866       -0.4174457565
 H          5.5210394691       -4.1677945541        0.5065185011
 H          3.5223811494       -3.8277603591        1.9136451077
 H          2.2623375185       -1.7159321890        1.7809819766
 H          5.1162300354        0.9348525387        1.3461410861
 H          6.3187716557        3.0692833113        1.1366769020
 H          5.3772431634        4.8973107015       -0.2313661510
 H          3.2298343494        4.5665954902       -1.4046654418
 H          2.0376575322        2.4215517584       -1.2203876394
 H          1.2218963564        2.1481430852        1.2821602819
 H         -1.2190784350        2.1487951082        1.2830152327
 H         -2.0380771941        2.4329956634       -1.2065167907
 H         -3.2363239944        4.5743879888       -1.3834373590
 H         -5.3894145615        4.8920718019       -0.2166336486
 H         -6.3296532656        3.0541824503        1.1389377783
 H         -5.1199616491        0.9226849345        1.3424430024
 H         -2.2684469099       -1.7118227322        1.7886615593
 H         -3.5245354861       -3.8270079377        1.9141909845
 H         -5.5107726914       -4.1735492110        0.4910736933
 H         -6.2336993507       -2.3957122804       -1.0610001249
 H         -4.9646899840       -0.2904819553       -1.2053120378
 H          4.9778067857       -0.2849782097       -1.1912095071
 H          6.2518930838       -2.3861629050       -1.0376861620
  57
  -90.0189004795000       0.211230873563712      !
 C          5.0966988588       -0.8437703691        3.7115813625
 C          3.9193251258       -1.5293318167        3.4545500717
 C          3.1630204210       -1.2279162025        2.3399655946
 C          3.5771971804       -0.2244191776        1.4598282460
 N          2.8158682346        0.0886309671        0.3370186158
 C          3.4452859149        0.4804032427       -0.8502672137
 C          2.8851322392        1.4926840674       -1.6299287561
 C          3.4934640301        1.8763731218       -2.8069801251
 C          4.6691858648        1.2681875600       -3.2176115143
 C          5.2344688566        0.2700252043       -2.4400925178
 C          4.6292159905       -0.1271341690       -1.2641313064
 C          1.4374037469        0.0121475818        0.3699513622
 C          0.7123853848        0.3692296509        1.5392659034
 C         -0.6514422567        0.3796656921        1.5591918911
 C         -1.4223399488       -0.0114268674        0.4297215530
 N         -2.7985980144        0.0870195063        0.4472990222
 C         -3.4284835512        1.1335480283        1.1167115053
 C         -2.8218276875        2.3894823870        1.2096194819
 C         -3.4508968461        3.4172417731        1.8822702180
 C         -4.6926315433        3.2189707542        2.4658996074
 C         -5.3036655565        1.9776896813        2.3696874815
 C         -4.6815253670        0.9404246511        1.7052624233
 C         -3.5635041885       -0.8245165314       -0.2915269670
 C         -3.2379455073       -2.1801939818       -0.2723134300
 C         -3.9837120564       -3.0787642213       -1.0071319474
 C         -5.0599175328       -2.6423167512       -1.7635157867
 C         -5.3893321634       -1.2963842739       -1.7795438621
 C         -4.6487913994       -0.3885161762       -1.0491634533
 C         -0.7341172693       -0.4610614758       -0.7176488330
 N         -1.2719926426       -0.9025295565       -1.8485395733
 S         -0.0498926726       -1.2318812513       -2.9142932182
 N          1.2050828303       -0.8033549801       -1.9259295769
 C          0.7048241245       -0.4081575266       -0.7608218066
 C          4.7642364058        0.4643239555        1.7248333283
 C          5.5136782734        0.1516247859        2.8406259580
 H          5.6864514562       -1.0849730719        4.5824061370
 H          3.5931427012       -2.3120717953        4.1232283342
 H          2.2573804070       -1.7753725999        2.1265067373
 H          1.9778087315        1.9753574625       -1.2989923447
 H          3.0510097331        2.6586606540       -3.4056318411
 H          5.1410513184        1.5695443151       -4.1403444695
 H          6.1469905137       -0.2114757623       -2.7587521479
 H          5.0553238808       -0.9220645696       -0.6702427160
 H          1.2676525018        0.6780666648        2.4115218384
 H         -1.1757432282        0.6745580708        2.4552783588
 H         -1.8669823417        2.5515751819        0.7329981336
 H         -2.9738534399        4.3842997872        1.9413245453
 H         -5.1822270497        4.0265473237        2.9877588459
 H         -6.2700145739        1.8153492045        2.8231716912
 H         -5.1514773499       -0.0296729759        1.6428401587
 H         -2.4036071465       -2.5155295392        0.3249700589
 H         -3.7255483808       -4.1270448638       -0.9896282576
 H         -5.6373045376       -3.3477440813       -2.3414159532
 H         -6.2222793063       -0.9501393959       -2.3732127002
 H         -4.8912235564        0.6636679626       -1.0745706205
 H          5.0824215303        1.2485038417        1.0542383879
 H          6.4280703691        0.6918274602        3.0357096692
  57
  -90.0186232227000       0.157521192893002      !
 C          4.8486858219       -2.6533685570        2.1185731828
 C          3.6970808109       -2.1033724523        2.6590691683
 C          3.0250793729       -1.0994556307        1.9928765439
 C          3.4990693774       -0.6367420940        0.7653907030
 N          2.8115800992        0.3795987663        0.0920400317
 C          3.5211374688        1.3711125552       -0.5810357607
 C          4.7343474495        1.8428308377       -0.0721504066
 C          5.4322267724        2.8270786949       -0.7422684168
 C          4.9369017465        3.3618416653       -1.9220367946
 C          3.7337963496        2.8981440679       -2.4314764310
 C          3.0295986719        1.9105526805       -1.7731568446
 C          1.4312316699        0.3611635275        0.0663376379
 C          0.6876843117        1.5728771245        0.0778748920
 C         -0.6760460808        1.5783067917        0.0523793266
 C         -1.4277010547        0.3752875838       -0.0402908875
 N         -2.8076554368        0.4054384714       -0.0607669628
 C         -3.5078037580        1.3427344518        0.6955107692
 C         -4.7130242556        1.8723417273        0.2268187313
 C         -5.4012256034        2.8026438032        0.9791736181
 C         -4.9042030415        3.2241901898        2.2031508928
 C         -3.7089594595        2.7019715009        2.6733007420
 C         -3.0140271837        1.7682582038        1.9319153835
 C         -3.5061779266       -0.5448267736       -0.8139201752
 C         -3.0400709913       -0.9097450147       -2.0768081769
 C         -3.7243172289       -1.8488035869       -2.8206382035
 C         -4.8803161341       -2.4292150522       -2.3233098924
 C         -5.3497891445       -2.0642439639       -1.0714748461
 C         -4.6697313597       -1.1294855464       -0.3166481763
 C         -0.7210726791       -0.8454954985       -0.0901668356
 N         -1.2434526072       -2.0623984192       -0.1850024494
 S         -0.0091568650       -3.1645643781       -0.1396592914
 N          1.2304307887       -2.0787008035       -0.0001997373
 C          0.7164307277       -0.8542072718        0.0105532748
 C          4.6579616796       -1.1908877375        0.2246249650
 C          5.3255653763       -2.1918284777        0.9019817380
 H          5.3704385246       -3.4401116233        2.6418030859
 H          3.3232164375       -2.4566346379        3.6084971828
 H          2.1351466262       -0.6589741708        2.4165087868
 H          5.1140109339        1.4372214072        0.8536677310
 H          6.3668424092        3.1855822047       -0.3374505495
 H          5.4858151306        4.1317735879       -2.4418308375
 H          3.3466800218        3.3015565481       -3.3553655375
 H          2.1051519508        1.5313746066       -2.1816896752
 H          1.2302262345        2.5037533007        0.1391573835
 H         -1.2125557435        2.5145340513        0.0718943776
 H         -5.0941984563        1.5540670625       -0.7319557505
 H         -6.3296480382        3.2073077804        0.6048012687
 H         -5.4454009947        3.9519313757        2.7877531423
 H         -3.3209242804        3.0171153906        3.6305131341
 H         -2.0953931602        1.3432161251        2.3071082677
 H         -2.1466483390       -0.4452880074       -2.4659708712
 H         -3.3569679531       -2.1267973052       -3.7972126745
 H         -5.4114760759       -3.1651489192       -2.9074523192
 H         -6.2452866355       -2.5197030793       -0.6757717467
 H         -5.0216332382       -0.8586983100        0.6677628742
 H          5.0165071231       -0.8448281703       -0.7334580312
 H          6.2185463695       -2.6217026350        0.4731052730
  57
  -90.0186190530000       0.156827684591747      !
 C          4.9356112563       -0.7847102504        3.8103834618
 C          3.7355149901       -1.4220615603        3.5359566078
 C          3.0320621374       -1.1244279786        2.3863089670
 C          3.5226804214       -0.1724059432        1.4888568705
 N          2.8162973514        0.1418823314        0.3291100096
 C          3.5169434151        0.4197911362       -0.8509012306
 C          3.0806683277        1.4381452263       -1.6979613125
 C          3.7672178524        1.7069203874       -2.8641346436
 C          4.8954291991        0.9743024123       -3.1978472446
 C          5.3363855595       -0.0324986257       -2.3538617907
 C          4.6542277257       -0.3126041976       -1.1866444333
 C          1.4368840438        0.1393340311        0.3199491854
 C          0.7016308275        0.5294875866        1.4729554130
 C         -0.6620108076        0.5307306904        1.4899270533
 C         -1.4263454521        0.1030950578        0.3695879436
 N         -2.8050952236        0.1227161552        0.4073085951
 C         -3.4865077157        1.1127968014        1.1127773402
 C         -2.9778252401        2.4119437819        1.1902508386
 C         -3.6578238656        3.3826368183        1.8976984663
 C         -4.8523685331        3.0819175685        2.5336548398
 C         -5.3649959019        1.7957667206        2.4553924417
 C         -4.6919065140        0.8157794071        1.7547139726
 C         -3.5319989091       -0.8367614445       -0.3082680126
 C         -3.1147405884       -2.1673892153       -0.3136166918
 C         -3.8298083966       -3.1115678036       -1.0212665601
 C         -4.9671542695       -2.7470961729       -1.7243645167
 C         -5.3880088857       -1.4267495610       -1.7154331908
 C         -4.6775587570       -0.4733123542       -1.0139334016
 C         -0.7290837592       -0.3215042506       -0.7820302658
 N         -1.2626067614       -0.7604759843       -1.9163085983
 S         -0.0374325460       -1.0801500668       -2.9807932808
 N          1.2143001800       -0.6560425440       -1.9856883771
 C          0.7102538986       -0.2651629178       -0.8207861582
 C          4.7341982283        0.4650987824        1.7693834461
 C          5.4304519982        0.1565117121        2.9202742780
 H          5.4829011612       -1.0219213912        4.7095498410
 H          3.3497548483       -2.1647423491        4.2184000761
 H          2.1088601275       -1.6361224188        2.1601302368
 H          2.2088569189        2.0148419947       -1.4281067096
 H          3.4225035034        2.4953099095       -3.5165441095
 H          5.4268317514        1.1850370813       -4.1133367139
 H          6.2102579864       -0.6114758039       -2.6126763415
 H          4.9828036679       -1.1110456804       -0.5381404562
 H          1.2511505804        0.8578414883        2.3417097221
 H         -1.1891051427        0.8359919031        2.3807179985
 H         -2.0596865216        2.6507903354        0.6750997998
 H         -3.2583610449        4.3848850344        1.9441731642
 H         -5.3817775984        3.8448682168        3.0830598693
 H         -6.2935429004        1.5534623147        2.9501042617
 H         -5.0845121950       -0.1886985093        1.7039881890
 H         -2.2356510109       -2.4493247766        0.2458183397
 H         -3.5008571011       -4.1399823437       -1.0217417420
 H         -5.5222710601       -3.4884252411       -2.2787430802
 H         -6.2694026573       -1.1358118706       -2.2675399897
 H         -4.9914754560        0.5599751507       -1.0219920310
 H          5.1129459448        1.2070161218        1.0823818729
 H          6.3630111079        0.6591817186        3.1289332786
