  57
  -90.3532099700000       0.193501320352831      !
 C          4.9687148515       -3.2423950969        0.4475789946
 C          3.8434660871       -3.0526115855        1.2338085688
 C          3.1308599400       -1.8733420031        1.1594157011
 C          3.5377013644       -0.8671838528        0.2842532627
 N          2.8116291415        0.3279579155        0.2019588922
 C          3.4912382938        1.5380606620        0.0832217002
 C          4.7102568940        1.7304587497        0.7395653197
 C          5.3796967176        2.9314202943        0.6219065018
 C          4.8503196278        3.9598011691       -0.1433344419
 C          3.6424196665        3.7743284976       -0.7979081439
 C          2.9656648698        2.5761654897       -0.6913030825
 C          1.4335101010        0.2923707983        0.2103792535
 C          0.6824146901        1.3509118947        0.7941371526
 C         -0.6803215241        1.3513603739        0.7944668696
 C         -1.4325610213        0.2937085160        0.2103709420
 N         -2.8105975964        0.3288532429        0.2040742369
 C         -3.4926910176        1.5375831814        0.0884060667
 C         -2.9682349847        2.5813371448       -0.6793534701
 C         -3.6486157498        3.7778197508       -0.7820901436
 C         -4.8595890451        3.9559427043       -0.1312047033
 C         -5.3882220785        2.9218738047        0.6270611492
 C         -4.7147366126        1.7229718488        0.7414086100
 C         -3.5350168071       -0.8679663353        0.2817893883
 C         -3.1326292441       -1.8718171943        1.1616106395
 C         -3.8425180738       -3.0530195248        1.2317018904
 C         -4.9604491618       -3.2466713718        0.4358380519
 C         -5.3673208703       -2.2473519946       -0.4337123688
 C         -4.6617587013       -1.0632653155       -0.5143703326
 C         -0.7199735014       -0.7900380154       -0.3463587045
 N         -1.2403823973       -1.8442686115       -0.9660865171
 S         -0.0014614959       -2.7871129790       -1.5220366087
 N          1.2398262771       -1.8448377983       -0.9667096245
 C          0.7199891861       -0.7906734054       -0.3469252762
 C          4.6715940507       -1.0588593574       -0.5029858400
 C          5.3799347818       -2.2407760866       -0.4174457565
 H          5.5210394691       -4.1677945541        0.5065185011
 H          3.5223811494       -3.8277603591        1.9136451077
 H          2.2623375185       -1.7159321890        1.7809819766
 H          5.1162300354        0.9348525387        1.3461410861
 H          6.3187716557        3.0692833113        1.1366769020
 H          5.3772431634        4.8973107015       -0.2313661510
 H          3.2298343494        4.5665954902       -1.4046654418
 H          2.0376575322        2.4215517584       -1.2203876394
 H          1.2218963564        2.1481430852        1.2821602819
 H         -1.2190784350        2.1487951082        1.2830152327
 H         -2.0380771941        2.4329956634       -1.2065167907
 H         -3.2363239944        4.5743879888       -1.3834373590
 H         -5.3894145615        4.8920718019       -0.2166336486
 H         -6.3296532656        3.0541824503        1.1389377783
 H         -5.1199616491        0.9226849345        1.3424430024
 H         -2.2684469099       -1.7118227322        1.7886615593
 H         -3.5245354861       -3.8270079377        1.9141909845
 H         -5.5107726914       -4.1735492110        0.4910736933
 H         -6.2336993507       -2.3957122804       -1.0610001249
 H         -4.9646899840       -0.2904819553       -1.2053120378
 H          4.9778067857       -0.2849782097       -1.1912095071
 H          6.2518930838       -2.3861629050       -1.0376861620
  57
  -90.3531750100000       0.186473631741477      !
 C          4.8672128834        1.7578924274        3.5220289396
 C          3.6629713995        1.0880052692        3.6736947453
 C          2.9832793572        0.6126352365        2.5706186104
 C          3.5018321801        0.8065369603        1.2870017465
 N          2.8162862165        0.3358268154        0.1702687739
 C          3.5285934592       -0.1437334644       -0.9354717953
 C          3.0859334373        0.1438444038       -2.2261472911
 C          3.7847699320       -0.3297384416       -3.3174876861
 C          4.9324109170       -1.0860244585       -3.1399096371
 C          5.3783886544       -1.3681263589       -1.8586017644
 C          4.6836012242       -0.9034711486       -0.7596039774
 C          1.4371206059        0.3148988295        0.1530519485
 C          0.6879559731        1.3422003120        0.7916118979
 C         -0.6746780292        1.3414176161        0.7960881301
 C         -1.4282638278        0.3076234673        0.1717125357
 N         -2.8058576911        0.3234910274        0.2059960608
 C         -3.4864967534        0.8565030946        1.2985174328
 C         -4.6944458274        1.5348890169        1.1122193275
 C         -5.3639707571        2.0699022611        2.1936132437
 C         -4.8456970680        1.9441365625        3.4739843783
 C         -3.6500509183        1.2690877880        3.6654553325
 C         -2.9734512404        0.7257235627        2.5920740454
 C         -3.5361245318       -0.2189613195       -0.8597763193
 C         -4.6696761992       -0.9912153945       -0.6140855541
 C         -5.3833923933       -1.5251861492       -1.6685864920
 C         -4.9772578363       -1.2990071184       -2.9740528287
 C         -3.8527851971       -0.5275230473       -3.2208509969
 C         -3.1352322036        0.0148952690       -2.1743652724
 C         -0.7168686216       -0.7164886253       -0.4903012299
 N         -1.2367222422       -1.7829684385       -1.0889329413
 S          0.0036279538       -2.7271261104       -1.6423815140
 N          1.2438691913       -1.7677601088       -1.1161472304
 C          0.7232662416       -0.7091597141       -0.5046812599
 C          4.7164173329        1.4826250526        1.1404531082
 C          5.3891482032        1.9491462151        2.2513602887
 H          5.3968370602        2.1251700832        4.3874068836
 H          3.2554939007        0.9256368120        4.6604224872
 H          2.0580567862        0.0694572024        2.6886301159
 H          2.1997279024        0.7456855380       -2.3602491400
 H          3.4355502148       -0.1034433048       -4.3138366476
 H          5.4754232810       -1.4556054186       -3.9961792370
 H          6.2679287487       -1.9630988855       -1.7143317900
 H          5.0176981377       -1.1395823571        0.2398797328
 H          1.2289983561        2.1607448792        1.2410941098
 H         -1.2121210626        2.1615270312        1.2469890750
 H         -5.0908914274        1.6446335674        0.1139178225
 H         -6.2935408180        2.5963047562        2.0365568316
 H         -5.3716367106        2.3662723336        4.3162258568
 H         -3.2465277537        1.1567669309        4.6607618144
 H         -2.0549661849        0.1790378698        2.7425609431
 H         -4.9716710156       -1.1824026495        0.4050743678
 H         -6.2552694454       -2.1306342363       -1.4701249197
 H         -5.5332627177       -1.7243702908       -3.7955592921
 H         -3.5360402124       -0.3440212616       -4.2366621088
 H         -2.2667545641        0.6276894672       -2.3629030195
 H          5.1160961628        1.6446821874        0.1506786674
 H          6.3249602107        2.4728352492        2.1255714796
  57
  -90.3528981900000       0.139123266334182      !
 C          4.9356112563       -0.7847102504        3.8103834618
 C          3.7355149901       -1.4220615603        3.5359566078
 C          3.0320621374       -1.1244279786        2.3863089670
 C          3.5226804214       -0.1724059432        1.4888568705
 N          2.8162973514        0.1418823314        0.3291100096
 C          3.5169434151        0.4197911362       -0.8509012306
 C          3.0806683277        1.4381452263       -1.6979613125
 C          3.7672178524        1.7069203874       -2.8641346436
 C          4.8954291991        0.9743024123       -3.1978472446
 C          5.3363855595       -0.0324986257       -2.3538617907
 C          4.6542277257       -0.3126041976       -1.1866444333
 C          1.4368840438        0.1393340311        0.3199491854
 C          0.7016308275        0.5294875866        1.4729554130
 C         -0.6620108076        0.5307306904        1.4899270533
 C         -1.4263454521        0.1030950578        0.3695879436
 N         -2.8050952236        0.1227161552        0.4073085951
 C         -3.4865077157        1.1127968014        1.1127773402
 C         -2.9778252401        2.4119437819        1.1902508386
 C         -3.6578238656        3.3826368183        1.8976984663
 C         -4.8523685331        3.0819175685        2.5336548398
 C         -5.3649959019        1.7957667206        2.4553924417
 C         -4.6919065140        0.8157794071        1.7547139726
 C         -3.5319989091       -0.8367614445       -0.3082680126
 C         -3.1147405884       -2.1673892153       -0.3136166918
 C         -3.8298083966       -3.1115678036       -1.0212665601
 C         -4.9671542695       -2.7470961729       -1.7243645167
 C         -5.3880088857       -1.4267495610       -1.7154331908
 C         -4.6775587570       -0.4733123542       -1.0139334016
 C         -0.7290837592       -0.3215042506       -0.7820302658
 N         -1.2626067614       -0.7604759843       -1.9163085983
 S         -0.0374325460       -1.0801500668       -2.9807932808
 N          1.2143001800       -0.6560425440       -1.9856883771
 C          0.7102538986       -0.2651629178       -0.8207861582
 C          4.7341982283        0.4650987824        1.7693834461
 C          5.4304519982        0.1565117121        2.9202742780
 H          5.4829011612       -1.0219213912        4.7095498410
 H          3.3497548483       -2.1647423491        4.2184000761
 H          2.1088601275       -1.6361224188        2.1601302368
 H          2.2088569189        2.0148419947       -1.4281067096
 H          3.4225035034        2.4953099095       -3.5165441095
 H          5.4268317514        1.1850370813       -4.1133367139
 H          6.2102579864       -0.6114758039       -2.6126763415
 H          4.9828036679       -1.1110456804       -0.5381404562
 H          1.2511505804        0.8578414883        2.3417097221
 H         -1.1891051427        0.8359919031        2.3807179985
 H         -2.0596865216        2.6507903354        0.6750997998
 H         -3.2583610449        4.3848850344        1.9441731642
 H         -5.3817775984        3.8448682168        3.0830598693
 H         -6.2935429004        1.5534623147        2.9501042617
 H         -5.0845121950       -0.1886985093        1.7039881890
 H         -2.2356510109       -2.4493247766        0.2458183397
 H         -3.5008571011       -4.1399823437       -1.0217417420
 H         -5.5222710601       -3.4884252411       -2.2787430802
 H         -6.2694026573       -1.1358118706       -2.2675399897
 H         -4.9914754560        0.5599751507       -1.0219920310
 H          5.1129459448        1.2070161218        1.0823818729
 H          6.3630111079        0.6591817186        3.1289332786
  57
  -90.3528855400000       0.137273348646075      !
 C          4.9286321901       -2.5100343955       -2.1156068213
 C          5.3610803327       -2.1187589939       -0.8585251298
 C          4.6655295081       -1.1601500619       -0.1488718446
 C          3.5233429000       -0.5795319112       -0.6968620804
 N          2.8096423209        0.3925789095        0.0154693617
 C          3.5040547579        1.3546912266        0.7463037916
 C          3.0062785046        1.8213849844        1.9658376695
 C          3.6967578989        2.7831726740        2.6752089030
 C          4.8915428519        3.2920451661        2.1900723551
 C          5.3945315326        2.8269183636        0.9843326029
 C          4.7109405379        1.8686795898        0.2640275898
 C          1.4306556372        0.3645050506        0.0123296049
 C          0.6779132620        1.5677664233        0.0993584846
 C         -0.6857286672        1.5644973833        0.1003800181
 C         -1.4336314200        0.3557622675        0.0515167576
 N         -2.8128422788        0.3813867978        0.0372548453
 C         -3.4985022223        1.4145788092       -0.5995141317
 C         -2.9851643372        2.0020701371       -1.7589392868
 C         -3.6652297865        3.0333466335       -2.3746038748
 C         -4.8654595371        3.4927667825       -1.8547103504
 C         -5.3840340674        2.9079880218       -0.7091190773
 C         -4.7104599390        1.8796416366       -0.0818777149
 C         -3.5333931848       -0.6622455657        0.6304093648
 C         -3.1133151649       -1.1968706529        1.8480835835
 C         -3.8205219122       -2.2294211501        2.4288946927
 C         -4.9539797361       -2.7360684212        1.8130505792
 C         -5.3786958897       -2.2013289006        0.6072265791
 C         -4.6753152285       -1.1716526567        0.0146460900
 C         -0.7189111621       -0.8602147797       -0.0033221585
 N         -1.2345342760       -2.0836976912       -0.0450061875
 S          0.0056334137       -3.1710326342       -0.1563078557
 N          1.2430356402       -2.0716895540       -0.1508795394
 C          0.7209411176       -0.8539251240       -0.0610222729
 C          3.0951908402       -0.9694374311       -1.9654502236
 C          3.7951186248       -1.9313975712       -2.6642790749
 H          5.4707677803       -3.2651922821       -2.6640456943
 H          6.2397808035       -2.5711935733       -0.4234805388
 H          4.9886276200       -0.8679329706        0.8393655729
 H          2.0880727876        1.4075428388        2.3541943077
 H          3.3041016624        3.1325789591        3.6185862907
 H          5.4284223182        4.0429328089        2.7487736042
 H          6.3234967910        3.2199789661        0.5991099228
 H          5.0960850704        1.5160393540       -0.6810848351
 H          1.2134264812        2.5038769081        0.1362642932
 H         -1.2257324954        2.4964985230        0.1655372873
 H         -2.0621604279        1.6283127885       -2.1757248519
 H         -3.2605823933        3.4758415530       -3.2727272961
 H         -5.3944371068        4.2981352804       -2.3403208755
 H         -6.3175569642        3.2615261076       -0.2975299160
 H         -5.1078620137        1.4329857899        0.8172393122
 H         -2.2381476341       -0.7902837069        2.3317373893
 H         -3.4878861358       -2.6403646253        3.3704054085
 H         -5.5022626550       -3.5461024805        2.2693372626
 H         -6.2571765652       -2.5967325226        0.1193902732
 H         -4.9918842088       -0.7682041018       -0.9357896946
 H          2.2194360845       -0.5066213396       -2.3945434032
 H          3.4569073047       -2.2300568173       -3.6452601141
  57
  -90.3528451200000       0.131525657685359      !
 C          4.8486858219       -2.6533685570        2.1185731828
 C          3.6970808109       -2.1033724523        2.6590691683
 C          3.0250793729       -1.0994556307        1.9928765439
 C          3.4990693774       -0.6367420940        0.7653907030
 N          2.8115800992        0.3795987663        0.0920400317
 C          3.5211374688        1.3711125552       -0.5810357607
 C          4.7343474495        1.8428308377       -0.0721504066
 C          5.4322267724        2.8270786949       -0.7422684168
 C          4.9369017465        3.3618416653       -1.9220367946
 C          3.7337963496        2.8981440679       -2.4314764310
 C          3.0295986719        1.9105526805       -1.7731568446
 C          1.4312316699        0.3611635275        0.0663376379
 C          0.6876843117        1.5728771245        0.0778748920
 C         -0.6760460808        1.5783067917        0.0523793266
 C         -1.4277010547        0.3752875838       -0.0402908875
 N         -2.8076554368        0.4054384714       -0.0607669628
 C         -3.5078037580        1.3427344518        0.6955107692
 C         -4.7130242556        1.8723417273        0.2268187313
 C         -5.4012256034        2.8026438032        0.9791736181
 C         -4.9042030415        3.2241901898        2.2031508928
 C         -3.7089594595        2.7019715009        2.6733007420
 C         -3.0140271837        1.7682582038        1.9319153835
 C         -3.5061779266       -0.5448267736       -0.8139201752
 C         -3.0400709913       -0.9097450147       -2.0768081769
 C         -3.7243172289       -1.8488035869       -2.8206382035
 C         -4.8803161341       -2.4292150522       -2.3233098924
 C         -5.3497891445       -2.0642439639       -1.0714748461
 C         -4.6697313597       -1.1294855464       -0.3166481763
 C         -0.7210726791       -0.8454954985       -0.0901668356
 N         -1.2434526072       -2.0623984192       -0.1850024494
 S         -0.0091568650       -3.1645643781       -0.1396592914
 N          1.2304307887       -2.0787008035       -0.0001997373
 C          0.7164307277       -0.8542072718        0.0105532748
 C          4.6579616796       -1.1908877375        0.2246249650
 C          5.3255653763       -2.1918284777        0.9019817380
 H          5.3704385246       -3.4401116233        2.6418030859
 H          3.3232164375       -2.4566346379        3.6084971828
 H          2.1351466262       -0.6589741708        2.4165087868
 H          5.1140109339        1.4372214072        0.8536677310
 H          6.3668424092        3.1855822047       -0.3374505495
 H          5.4858151306        4.1317735879       -2.4418308375
 H          3.3466800218        3.3015565481       -3.3553655375
 H          2.1051519508        1.5313746066       -2.1816896752
 H          1.2302262345        2.5037533007        0.1391573835
 H         -1.2125557435        2.5145340513        0.0718943776
 H         -5.0941984563        1.5540670625       -0.7319557505
 H         -6.3296480382        3.2073077804        0.6048012687
 H         -5.4454009947        3.9519313757        2.7877531423
 H         -3.3209242804        3.0171153906        3.6305131341
 H         -2.0953931602        1.3432161251        2.3071082677
 H         -2.1466483390       -0.4452880074       -2.4659708712
 H         -3.3569679531       -2.1267973052       -3.7972126745
 H         -5.4114760759       -3.1651489192       -2.9074523192
 H         -6.2452866355       -2.5197030793       -0.6757717467
 H         -5.0216332382       -0.8586983100        0.6677628742
 H          5.0165071231       -0.8448281703       -0.7334580312
 H          6.2185463695       -2.6217026350        0.4731052730
  57
  -90.3527729500000       0.121855025963687      !
 C          4.9407642183       -2.3661486195       -2.2951783476
 C          5.3873584854       -2.0305419456       -1.0268667374
 C          4.6867876938       -1.1231826456       -0.2575203791
 C          3.5253915046       -0.5354535261       -0.7566832612
 N          2.8092893314        0.3914513160        0.0075210059
 C          3.4885216026        1.3031609924        0.8128858071
 C          2.9619741188        1.6845039408        2.0500956888
 C          3.6368296731        2.5905130114        2.8428420329
 C          4.8434027613        3.1289231900        2.4232291110
 C          5.3719756925        2.7527275344        1.1974672712
 C          4.7043433202        1.8505286736        0.3942146725
 C          1.4286246678        0.3637411619       -0.0051405733
 C          0.6798190416        1.5683095976        0.0903679556
 C         -0.6840679009        1.5677189534        0.0830920791
 C         -1.4308669928        0.3589788715        0.0390112212
 N         -2.8118403495        0.3854479541        0.0342155834
 C         -3.4939427609        1.3821955701       -0.6601115839
 C         -2.9701034188        1.9021292495       -1.8469109575
 C         -3.6458469896        2.8933512057       -2.5292025514
 C         -4.8510719351        3.3808252615       -2.0478912771
 C         -5.3772004482        2.8669421848       -0.8721293248
 C         -4.7084318459        1.8784903772       -0.1788462262
 C         -3.5231846546       -0.6215397861        0.6942280489
 C         -3.0689020995       -1.1008666602        1.9230757003
 C         -3.7682154388       -2.0925080576        2.5793726180
 C         -4.9282518522       -2.6137392874        2.0283990679
 C         -5.3848474743       -2.1369191143        0.8098952237
 C         -4.6894733376       -1.1489297389        0.1417610194
 C         -0.7199933119       -0.8584361723       -0.0190480332
 N         -1.2381272650       -2.0803439902       -0.0580491364
 S          0.0012226655       -3.1684047945       -0.1919341520
 N          1.2392113627       -2.0704921869       -0.1963821831
 C          0.7195655695       -0.8531560944       -0.0914619899
 C          3.0812214515       -0.8722155281       -2.0354276160
 C          3.7857771016       -1.7843347623       -2.7935902948
 H          5.4887116610       -3.0797087306       -2.8913446548
 H          6.2819185640       -2.4869944637       -0.6301528511
 H          5.0220827939       -0.8763405111        0.7389193545
 H          2.0338674135        1.2468404936        2.3853912985
 H          3.2236827964        2.8707736841        3.8003697030
 H          5.3693724479        3.8342088910        3.0478982595
 H          6.3090112851        3.1716755033        0.8621723398
 H          5.1095952311        1.5678705927       -0.5659738278
 H          1.2198538865        2.5014495986        0.1386292442
 H         -1.2255682196        2.4992816111        0.1437761417
 H         -2.0429898018        1.5052969416       -2.2320151937
 H         -3.2347701085        3.2807533328       -3.4495824780
 H         -5.3777390704        4.1535220490       -2.5862760124
 H         -6.3134349623        3.2447100997       -0.4893240174
 H         -5.1117309093        1.4881576688        0.7435508932
 H         -2.1735827156       -0.6816161686        2.3564979652
 H         -3.4098196953       -2.4581420664        3.5300809048
 H         -5.4719345614       -3.3901735211        2.5446380322
 H         -6.2834004807       -2.5453044833        0.3718889611
 H         -5.0325145533       -0.7917666700       -0.8178843805
 H          2.1897240681       -0.4054560031       -2.4261355264
 H          3.4355054036       -2.0397124845       -3.7825285398
  57
  -90.3524891900000       9.024774927638891E-002 !
 C          5.0966988588       -0.8437703691        3.7115813625
 C          3.9193251258       -1.5293318167        3.4545500717
 C          3.1630204210       -1.2279162025        2.3399655946
 C          3.5771971804       -0.2244191776        1.4598282460
 N          2.8158682346        0.0886309671        0.3370186158
 C          3.4452859149        0.4804032427       -0.8502672137
 C          2.8851322392        1.4926840674       -1.6299287561
 C          3.4934640301        1.8763731218       -2.8069801251
 C          4.6691858648        1.2681875600       -3.2176115143
 C          5.2344688566        0.2700252043       -2.4400925178
 C          4.6292159905       -0.1271341690       -1.2641313064
 C          1.4374037469        0.0121475818        0.3699513622
 C          0.7123853848        0.3692296509        1.5392659034
 C         -0.6514422567        0.3796656921        1.5591918911
 C         -1.4223399488       -0.0114268674        0.4297215530
 N         -2.7985980144        0.0870195063        0.4472990222
 C         -3.4284835512        1.1335480283        1.1167115053
 C         -2.8218276875        2.3894823870        1.2096194819
 C         -3.4508968461        3.4172417731        1.8822702180
 C         -4.6926315433        3.2189707542        2.4658996074
 C         -5.3036655565        1.9776896813        2.3696874815
 C         -4.6815253670        0.9404246511        1.7052624233
 C         -3.5635041885       -0.8245165314       -0.2915269670
 C         -3.2379455073       -2.1801939818       -0.2723134300
 C         -3.9837120564       -3.0787642213       -1.0071319474
 C         -5.0599175328       -2.6423167512       -1.7635157867
 C         -5.3893321634       -1.2963842739       -1.7795438621
 C         -4.6487913994       -0.3885161762       -1.0491634533
 C         -0.7341172693       -0.4610614758       -0.7176488330
 N         -1.2719926426       -0.9025295565       -1.8485395733
 S         -0.0498926726       -1.2318812513       -2.9142932182
 N          1.2050828303       -0.8033549801       -1.9259295769
 C          0.7048241245       -0.4081575266       -0.7608218066
 C          4.7642364058        0.4643239555        1.7248333283
 C          5.5136782734        0.1516247859        2.8406259580
 H          5.6864514562       -1.0849730719        4.5824061370
 H          3.5931427012       -2.3120717953        4.1232283342
 H          2.2573804070       -1.7753725999        2.1265067373
 H          1.9778087315        1.9753574625       -1.2989923447
 H          3.0510097331        2.6586606540       -3.4056318411
 H          5.1410513184        1.5695443151       -4.1403444695
 H          6.1469905137       -0.2114757623       -2.7587521479
 H          5.0553238808       -0.9220645696       -0.6702427160
 H          1.2676525018        0.6780666648        2.4115218384
 H         -1.1757432282        0.6745580708        2.4552783588
 H         -1.8669823417        2.5515751819        0.7329981336
 H         -2.9738534399        4.3842997872        1.9413245453
 H         -5.1822270497        4.0265473237        2.9877588459
 H         -6.2700145739        1.8153492045        2.8231716912
 H         -5.1514773499       -0.0296729759        1.6428401587
 H         -2.4036071465       -2.5155295392        0.3249700589
 H         -3.7255483808       -4.1270448638       -0.9896282576
 H         -5.6373045376       -3.3477440813       -2.3414159532
 H         -6.2222793063       -0.9501393959       -2.3732127002
 H         -4.8912235564        0.6636679626       -1.0745706205
 H          5.0824215303        1.2485038417        1.0542383879
 H          6.4280703691        0.6918274602        3.0357096692
