49
 energy: -89.528411980031 gnorm: 0.000104015745 xtb: 6.7.1 (edcfbbe)
C            8.68612593008278       -1.99811092258219       -0.15227541026780
O            8.10223731129502       -0.73145951441494        0.03820106722698
C            6.75222107778266       -0.62228288501817        0.03300922335967
C            6.24074802338903        0.67018743461312        0.23168682929011
C            4.89236235794449        0.89312445526993        0.24561696931625
C            3.96895908875503       -0.16393647380750        0.06154335299720
C            2.58078821654982        0.07505590469006        0.07973746156582
C            1.51842016881401       -0.83676722842902       -0.05441923739410
C            0.25883675098075       -0.30513646383367        0.05068251420909
C           -0.96319472485955       -1.08433341824418        0.04215076191358
C           -1.09656524927031       -2.16683541559799       -0.83344298646106
C           -2.24731200833584       -2.92435628920820       -0.84909121139702
C           -3.28791470511315       -2.61209120205234        0.02011983559161
C           -4.52487453926867       -3.45713975624926        0.01750320345525
F           -4.85844865366404       -3.89514643755212       -1.20906769616906
F           -5.60447297844657       -2.82257120355496        0.49914377050949
F           -4.38344808537165       -4.56963072499350        0.77456358528029
C           -3.16200617695131       -1.55537245904183        0.91456452363226
C           -2.00979154420368       -0.79872961312044        0.92478533787355
C            0.28798044312046        1.13546151972040        0.19759465237836
C           -0.76156593403834        2.02694587681302        0.09546578377355
N           -2.04884332796669        1.70749671606988       -0.13667348810148
C           -2.72326536605286        2.86729636032110       -0.16316145747590
C           -4.08833968975457        3.10619360461059       -0.36450294382329
C           -4.51841112352864        4.41318016172477       -0.35119163454593
C           -3.63529460121268        5.47953530641702       -0.14480836478580
C           -2.27943586282148        5.27525984291137        0.05736915280675
C           -1.83313208480210        3.96873843381762        0.04869564878241
N           -0.60257398662329        3.40519242156369        0.20502987165913
S            1.94474020032096        1.71082595612263        0.32625553127648
C            4.50207968418299       -1.45691410380059       -0.13942915580791
C            5.85752327274488       -1.68057822774542       -0.15218461786881
H            9.76179737163876       -1.83643849228062       -0.10622257277035
H            8.39159426910220       -2.69822090281813        0.63576918961715
H            8.42502135770939       -2.41751722373030       -1.12892615512453
H            6.94217430725041        1.47714346661088        0.37263191108461
H            4.51214234009678        1.89194952699527        0.40032145753182
H            1.69374335927392       -1.89120112259599       -0.17156479323295
H           -0.29928779891546       -2.39278359095389       -1.52531262475633
H           -2.35231720436133       -3.74912299192329       -1.53775975830299
H           -3.96799997874281       -1.32997837793927        1.59579650390197
H           -1.90406460597345        0.00117777009355        1.63771422584173
H           -4.76283776585694        2.28059423757547       -0.52123327300133
H           -5.56528098772825        4.63026842163660       -0.50289126031614
H           -4.02180734795880        6.48763327031314       -0.14358383452226
H           -1.60300909754394        6.10182703848520        0.21462911519379
H            0.27089094490929        3.87722267536579        0.36333386799911
H            3.83522564114666       -2.29152657733080       -0.28562826030289
H            6.21878359948467       -2.68516093932209       -0.30797085109826
