49
 energy: -89.528412643728 gnorm: 0.000113170052 xtb: 6.7.1 (edcfbbe)
C            8.68933415007960       -1.99748413182262       -0.24029973365881
O            8.10564117970219       -0.73144258237325       -0.04522845229338
C            6.75541883077626       -0.62487878527274       -0.03297735109637
C            6.24394664377417        0.66781592475175        0.16422342191067
C            4.89538189957700        0.88833644198241        0.19356741142777
C            3.97180504917407       -0.17158198968538        0.02757886589320
C            2.58348277109815        0.06525185873808        0.05819485624083
C            1.52153341291605       -0.84935610538935       -0.05916796527020
C            0.26189042286955       -0.31808389646422        0.04697275358338
C           -0.95975625036680       -1.09775425119106        0.05080478354637
C           -2.00514191321647       -0.80141660562314        0.93149042460515
C           -3.15821932714885       -1.55666827185959        0.93022941223845
C           -3.28639698721182       -2.62286667271194        0.04714868888263
C           -4.52684499540487       -3.46277078588568        0.05712491092153
F           -5.61325751283662       -2.80040122900575        0.48394610883777
F           -4.40844364662852       -4.53745407484099        0.87063398131804
F           -4.83632343299587       -3.95803066336834       -1.15346342349895
C           -2.24656066877278       -2.94658798048824       -0.81855137478354
C           -1.09490366351443       -2.19019324733957       -0.81201545467736
C            0.29027116999431        1.12416694266959        0.17727173946153
C           -0.76014252911552        2.01340552326063        0.06491600594441
N           -2.04739273788613        1.68969264892566       -0.16119451247785
C           -2.72273605919900        2.84846348864759       -0.20395643252091
C           -4.08809103430589        3.08341240521423       -0.40806668651336
C           -4.51893849814993        4.39019649783290       -0.41433855001881
C           -3.63638617723633        5.46009613105824       -0.22454354723064
C           -2.28030259254064        5.25975215895165       -0.01989892362893
C           -1.83320847573224        3.95351177313737       -0.00903921448302
N           -0.60209255933775        3.39314005596713        0.15467097995382
S            1.94695363042174        1.70247291703361        0.29324881650392
C            4.50491215987665       -1.46498145177684       -0.17071360918296
C            5.86051431657354       -1.68613042160746       -0.19934460548688
H            8.40796491042834       -2.69582692549698        0.55409101537282
H            8.41466697818484       -2.42036534921464       -1.21172839735548
H            9.76522671795458       -1.83348727021956       -0.21060981309453
H            6.94549877879547        1.47700632380106        0.29104902602530
H            4.51515702447887        1.88745198669811        0.34633125744239
H            1.69770756064295       -1.90477173206405       -0.16559677795242
H           -1.89791970782252        0.00621916271082        1.63541794408819
H           -3.96380524550681       -1.32275551779431        1.60909632993402
H           -2.35252577666163       -3.77889922826686       -1.49788843685539
H           -0.29839702273317       -2.42498691523671       -1.50182938035555
H           -4.76215576729693        2.25513668223715       -0.55203255605889
H           -5.56597858232901        4.60434220618932       -0.56900562235403
H           -4.02348774294380        6.46787537098885       -0.23870111710324
H           -1.60429025237358        6.08902606503106        0.12433803131747
H            0.27093652441251        3.86855402185043        0.30506352320404
H            3.83792535360089       -2.30182675158882       -0.30279482221703
H            6.22171146230592       -2.69106320990154       -0.35296506304292
