  85
       -121.11465030
 C          2.1102154685       -0.8065247767        2.0235956553
 C          3.5118135675       -0.6482361358        1.4465864749
 C          3.5878673907       -1.2442590354        0.0443497698
 C          4.9899498309       -1.2383691583       -0.5628309279
 C          5.6080603193        0.1463210876       -0.7701459367
 C          4.7941332428        1.0511166256       -1.7144725675
 N          3.9466959192        1.9775696080       -0.9951431426
 C          2.5608547432        1.8625000197       -1.0096826367
 C          1.8520429069        1.1841011324       -1.9278829222
 C          0.3654398950        1.0178943801       -1.8521441881
 C         -0.1821907759        1.2175445485       -0.4648835025
 C         -1.2790427389        0.6124594528        0.0077185489
 C         -2.0811691305       -0.4450702511       -0.6919939403
 C         -3.5242417173       -0.4529664035       -0.2620610538
 C         -4.4587162904        0.5479428020       -0.3891518667
 C         -5.7545174206        0.3383998187        0.0893044170
 C         -6.7673705331        1.3961431761       -0.0344258167
 C         -8.0788144870        1.0905726690       -0.3917159324
 C         -9.0278777325        2.0887765075       -0.5090866770
 C         -8.6850398064        3.4084424967       -0.2667151172
 C         -7.3849039260        3.7239857550        0.0910215556
 C         -6.4333328085        2.7277870798        0.2036508325
 C         -6.0752004419       -0.8802974386        0.6888424308
 C         -5.1364843948       -1.8864829643        0.8271697308
 C         -3.8530234396       -1.6723879005        0.3503702953
 C         -2.6726770470       -2.5168893693        0.3577318999
 C         -2.4615676281       -3.7919336355        0.8590293271
 C         -1.2027794337       -4.3540282050        0.7445350793
 C         -0.1559011659       -3.6673706484        0.1300938576
 C          1.1745078850       -4.2812095670        0.0132046303
 C          1.7542933000       -4.9408924719        1.0940608049
 C          3.0146425305       -5.4987274859        0.9843657333
 C          3.7120478506       -5.4166667104       -0.2094402749
 C          3.1417668965       -4.7704165816       -1.2935101134
 C          1.8861507550       -4.2023411074       -1.1820108259
 C         -0.3735355391       -2.3841760059       -0.3753096921
 C         -1.6225229171       -1.8206638749       -0.2599715155
 C          0.5474804855        2.1548607609        0.3520332428
 C          1.8260469975        2.4893986591        0.0902211467
 O          2.4250411456        3.4021803596        0.9007321017
 C          3.7532114484        3.6646142860        0.7190200582
 C          4.3042993254        4.6627597482        1.5067213927
 C          5.6501258597        4.9650009455        1.4104759010
 C          6.4394164249        4.2576613242        0.5213180812
 C          5.8943937143        3.2627150789       -0.2695048642
 C          4.5366537220        2.9453038386       -0.1980717180
 H          2.0596047479       -0.3924417597        3.0283909625
 H          1.3841368931       -0.2890716929        1.4022511824
 H          1.8347649319       -1.8579556856        2.0683702044
 H          4.2342709721       -1.1501556421        2.0948434728
 H          3.7657024547        0.4114785685        1.4217368512
 H          2.8993638840       -0.7039414364       -0.6049972872
 H          3.2512008910       -2.2805423560        0.0944676162
 H          5.6559373945       -1.8121311252        0.0858512590
 H          4.9501187838       -1.7544292240       -1.5256389191
 H          5.7206919470        0.6392043638        0.1940404706
 H          6.6083267310        0.0085228021       -1.1863937025
 H          4.1724302409        0.4243512244       -2.3463379622
 H          5.4621576541        1.6173142093       -2.3711491517
 H          2.3156880918        0.7406465901       -2.7945281346
 H          0.1007431197        0.0332595784       -2.2379930784
 H         -0.1070043532        1.7570262664       -2.5167985896
 H         -1.6042440888        0.8329150267        1.0146183957
 H         -2.0053986721       -0.3283192272       -1.7758283296
 H         -4.2017848947        1.4809012186       -0.8692472139
 H         -8.3484423239        0.0650400374       -0.5987695475
 H        -10.0394339043        1.8367716256       -0.7926547361
 H         -9.4275140614        4.1874367783       -0.3562458330
 H         -7.1119899732        4.7510806272        0.2857816600
 H         -5.4250245055        2.9778557567        0.5003892241
 H         -7.0734793926       -1.0280457684        1.0742625968
 H         -5.4010553768       -2.8193904454        1.3027193532
 H         -3.2628155044       -4.3384443380        1.3340311923
 H         -1.0266348774       -5.3515185568        1.1205255573
 H          1.2192643595       -4.9952901964        2.0310572701
 H          3.4563728341       -5.9985197141        1.8341482403
 H          4.6951981595       -5.8548902850       -0.2948938239
 H          3.6787776934       -4.7087229040       -2.2290864802
 H          1.4405246478       -3.7067914418       -2.0320997301
 H          0.4450930173       -1.8395094959       -0.8186131969
 H          0.0721404173        2.5586686734        1.2320233563
 H          3.6569726018        5.1824497282        2.1951199777
 H          6.0750700860        5.7406987059        2.0270874755
 H          7.4927458419        4.4775497882        0.4375776760
 H          6.5399540693        2.7331775360       -0.9483807573
