95
 energy: -147.772519172415 gnorm: 0.000033815911 xtb: 6.7.1 (edcfbbe)
C            4.68932035890180       -4.70310124750960        0.80977289140709
C            5.41644519093013       -3.95330418995801        1.72176043872713
C            5.68017087735921       -2.61964939220120        1.47422871699401
C            5.21332947246707       -2.02846708294472        0.30100141493972
N            5.46205663668451       -0.67120624900276        0.04521399456507
C            4.47137351422941        0.33456075527500       -0.09042102443214
C            3.10372764323700        0.23207858043933        0.14599211533010
C            2.43402063123941       -0.86618050720364        0.77212221860276
C            1.08334244795573       -0.86882273121702        0.92395230443809
C            0.26640634474297        0.21004731696828        0.49391016129655
C           -1.16490595778264        0.17797058661541        0.64995926965053
C           -1.91523542339327        1.36191901573665        0.75299963287549
C           -3.29158053896457        1.33777195615017        0.90110953919325
C           -4.04999013420699        2.59394415858245        1.01522749456279
C           -3.56946091009284        3.65120193295882        1.78438957885081
C           -4.29015206736710        4.82721011930861        1.88306089183008
C           -5.49538707027222        4.96831792207738        1.22037702652372
C           -5.99321468502093        3.92405076079163        0.44391873969295
C           -7.27208397668358        4.06188533232507       -0.26370483405861
C           -7.45608824101347        3.56532135952919       -1.55327637367178
C           -8.68344900773616        3.72277821013306       -2.17208653538072
C           -9.69133910488178        4.37898957988583       -1.48141131641505
N           -9.53482891869004        4.85063894331513       -0.25633035284117
C           -8.36558357994304        4.69366698401973        0.33208343818560
C           -5.26204535262453        2.74479172909484        0.35083573787652
C           -3.95507742686235        0.11148382169546        0.94001222640370
C           -3.23968049746435       -1.08151616960105        0.83913737296504
C           -3.94906358437669       -2.37037357878407        0.87262072988277
C           -3.44490115136145       -3.44372318843462        1.60325168842457
C           -4.12211671146975       -4.64888164925353        1.63162363276995
C           -5.30227096903515       -4.80536220219685        0.92838975181130
C           -5.82289429912998       -3.74533960655131        0.18930896629958
C           -7.07530169150701       -3.89923428493404       -0.56072225864187
C           -7.37078320850743       -5.06569984155800       -1.26438780880087
C           -8.56548901884596       -5.15593602046460       -1.95631475906364
C           -9.42872457372448       -4.07080886529624       -1.92679882768468
N           -9.16671401535575       -2.95966955989288       -1.25983550304229
C           -8.02936984398608       -2.88031414177160       -0.59762380828170
C           -5.13941764073455       -2.53429548792216        0.17338937306739
C           -1.86283376390444       -1.04149240801238        0.70132743350903
C            0.93662362402035        1.32822213672923       -0.07304747480957
C            2.28251802424417        1.34545425311418       -0.23757228788105
N            5.04991512663719        1.50998953700031       -0.43439511568081
C            6.35112319513154        1.30264688551485       -0.47244002572897
C            7.37659368398651        2.26154046012253       -0.72887685811953
C            7.05636861035981        3.60344692939996       -0.94092764223114
C            8.05169172869523        4.53245915800150       -1.15172977185981
C            9.37754918484599        4.11755787619263       -1.14251244816613
C            9.70323466560601        2.79144242211571       -0.93912835912675
C            8.71844641391657        1.81671575555776       -0.73456732214640
C            9.02503944623335        0.40649163195657       -0.55447171142350
C           10.33203561995924       -0.07264519045178       -0.64630549295264
C           10.63840657849176       -1.41199732343392       -0.51874738717766
C            9.62052171090098       -2.34288654450401       -0.30978378069663
C            8.32300127204829       -1.92038281358648       -0.20405563978158
C            7.98382749396994       -0.55058238871464       -0.30091500813304
C            6.66977504863266       -0.06696427728080       -0.19868505110610
C            4.48226008996160       -2.78228456846024       -0.61529188220097
C            4.22418220758616       -4.11484017297531       -0.35589550944597
H            4.48470012621720       -5.74402065900545        1.00875780428314
H            5.77533523106945       -4.40813948971468        2.63291733106814
H            6.24307641728021       -2.02590285188813        2.17964508867392
H            3.00874602976365       -1.68331541003683        1.17605348922531
H            0.62185024451988       -1.69999309181642        1.43636062267539
H           -1.41074743538495        2.31531603635464        0.73187491980761
H           -2.63884826656731        3.54187900045613        2.32141040884208
H           -3.90957050993227        5.64123707621332        2.48274814363243
H           -6.04464967206403        5.89569814274089        1.28644533518383
H           -6.63935759693577        3.08007789274242       -2.06914677724281
H           -8.85304118402057        3.35039478080927       -3.17072297057613
H          -10.66647741659674        4.53621378450752       -1.92296509909715
H           -8.29718172250013        5.07795055731089        1.34187703552353
H           -5.64298354125228        1.93015718936775       -0.24820644539798
H           -5.02346033158076        0.08365141565032        1.09284833146254
H           -2.53119801814146       -3.32377377223538        2.16652202053246
H           -3.72942815894919       -5.47263784446156        2.21007065341769
H           -5.83489549516494       -5.74422809448079        0.96887389639326
H           -6.66193341309720       -5.88164407799196       -1.28273810265142
H           -8.81871727562219       -6.04562507392808       -2.51239322181778
H          -10.37125289034245       -4.08677899066175       -2.45797199600232
H           -7.87384828624087       -1.95922499978451       -0.05023851941096
H           -5.52008776574287       -1.71891455904137       -0.42448628453126
H           -1.32513143993058       -1.96844664196604        0.57248866576987
H            0.35450341217237        2.16868956855903       -0.41940934802588
H            2.78090722172035        2.18797392777400       -0.68886475953662
H            6.01422784311992        3.88176015854995       -0.92732128224355
H            7.80760526647241        5.57103703828093       -1.31625808334748
H           10.16690446840983        4.83905974280489       -1.29673399802868
H           10.74729010662131        2.52196839756384       -0.93801808530022
H           11.14257894028657        0.61322324251630       -0.83355011525273
H           11.66401647071923       -1.73998268796923       -0.59538461598693
H            9.85528781287101       -3.39435179405716       -0.23640991636078
H            7.53997029555302       -2.64703480431263       -0.06381671391630
H            4.12004663595966       -2.31267249455387       -1.51762983542344
H            3.65958771499554       -4.69753173598162       -1.06815481380066
