95
 energy: -147.858042483753 gnorm: 0.000069397178 xtb: 6.7.1 (edcfbbe)
C            3.90515854402235        1.58023104558751        3.87628588778729
C            3.51871321826216        2.12602262477132        2.66366224501646
C            3.87211893945954        1.50810241964176        1.47781819474269
C            4.61652392794237        0.33481714440116        1.50823742009749
N            4.93836394964156       -0.31582615316194        0.30189030737633
C            4.01131598662266       -0.80314636367769       -0.59405005343801
C            2.57095502295336       -0.70728277540355       -0.41368618382859
C            1.95469861288213       -0.92316255701196        0.81726200006373
C            0.58289636756803       -0.82640627680954        0.93444252871290
C           -0.20670882087330       -0.49960690390760       -0.16470994919934
C           -1.66491818700969       -0.36637317016236       -0.02853962377281
C           -2.32120869804463        0.72380134222686       -0.58838126166527
C           -3.69888219401700        0.86620664719042       -0.46672259361414
C           -4.37719573931125        2.04139380964155       -1.03564483679363
C           -5.58327157199590        1.91016751975305       -1.71935013469162
C           -6.20980024826738        3.02344890997002       -2.24872925086823
C           -5.65194442711671        4.27931715802988       -2.09593821406335
C           -4.44754773025285        4.43272584324885       -1.41270803857479
C           -3.84590177475874        5.76089914338998       -1.24258648162929
C           -4.61775973581515        6.88444193081628       -0.95133940217337
C           -3.99732270141050        8.11148893484343       -0.79733675922355
C           -2.61883584802638        8.17606640126657       -0.93597075349748
N           -1.87279779787224        7.12157409051367       -1.21822943743849
C           -2.46897079677297        5.95519544191526       -1.36851879291366
C           -3.81894313920277        3.30655562525541       -0.89252434618349
C           -4.42311279394124       -0.11099197545674        0.20689404151419
C           -3.78451033476580       -1.20908469477059        0.77347855239681
C           -4.56190061838225       -2.23784050399696        1.48233497833811
C           -4.10391573805306       -2.77801155772357        2.68151215331625
C           -4.84529437545807       -3.74044101040555        3.34209337539941
C           -6.04698490329698       -4.18044990842409        2.81865066813731
C           -6.51896031378473       -3.65888593709111        1.61616642430056
C           -7.78970671024553       -4.12434520617817        1.04690572453411
C           -7.93791288606095       -4.36123714370452       -0.31872887258405
C           -9.15748147050985       -4.80182093224165       -0.80130106115394
C          -10.19333013252681       -4.99464740182891        0.10064529924807
N          -10.07135502010424       -4.76792181623241        1.39755376212787
C           -8.90818338061773       -4.34548825583220        1.85275864460302
C           -5.76911524764276       -2.68855890117984        0.96063853790896
C           -2.40316609935499       -1.32281371562068        0.65932677357033
C            0.41146098168349       -0.30191403775804       -1.39771865117841
C            1.77950818252640       -0.41713729729808       -1.52448273650721
N            4.57534873867868       -1.37315165394209       -1.62774115980866
C            5.91568065898619       -1.27589335004516       -1.42318144531408
C            6.96189658740723       -1.78956273455018       -2.23884318085634
C            6.68410682833360       -2.50665861746525       -3.40727228085365
C            7.70644268592204       -3.02965752005282       -4.15865133409747
C            9.02411150390231       -2.84387276592775       -3.74490438507164
C            9.30875983115452       -2.13416414765020       -2.60182713868105
C            8.29233830388713       -1.57475383121318       -1.81229830394497
C            8.56097139590857       -0.78920616745878       -0.62016926586395
C            9.86975012175969       -0.47800552593479       -0.22506171670223
C           10.13397236617582        0.30364718674558        0.87445237301509
C            9.08717987098962        0.82905741709468        1.62507811627810
C            7.79044955313449        0.54214095024977        1.27699988648461
C            7.49997597327582       -0.27746510631369        0.17689220335926
C            6.17548658027372       -0.60376663254636       -0.22993185834538
C            5.00035404863761       -0.21905286963465        2.72601538541208
C            4.64651069093790        0.40981013540433        3.90524658800742
H            3.62865892589086        2.06597751813860        4.79976797439564
H            2.94148603685756        3.03785866096004        2.63875059891845
H            3.57550659813080        1.92549956857985        0.52711183917031
H            2.54424499950122       -1.18705853037605        1.68268968564134
H            0.11649784013115       -0.98761501939627        1.89561482433801
H           -1.75107285932731        1.46991017140622       -1.12231726019669
H           -6.01871836271492        0.93083383591376       -1.85261956822782
H           -7.13967979433510        2.91156194988152       -2.78713912159963
H           -6.13928708795535        5.14257290638269       -2.52481658136279
H           -5.68749584381952        6.78988226659975       -0.82796280100046
H           -4.56932922180726        8.99738200201302       -0.56761283679398
H           -2.08438068099176        9.10928701957958       -0.81681297363471
H           -1.81638136110804        5.12856361309062       -1.61939588339456
H           -2.90194673970391        3.42119197770106       -0.33286069175385
H           -5.49012347529021        0.00622343738823        0.32836384269692
H           -3.17465983313966       -2.42678533166465        3.10512865416527
H           -4.48359422661309       -4.15165283874362        4.27326367746066
H           -6.61321364686174       -4.94529599506299        3.32899799981957
H           -7.09985856167365       -4.22076978891907       -0.98707564239031
H           -9.29972218033314       -4.99838322390725       -1.85298916873791
H          -11.16401164162018       -5.34564128092739       -0.22387276208291
H           -8.86563279397153       -4.15600786664247        2.91786191585390
H           -6.13051666231716       -2.27693794712991        0.02914993823211
H           -1.90130203302361       -2.18591324267339        1.07166627875701
H           -0.19260102763933       -0.07515578782719       -2.26424043865987
H            2.26020618491566       -0.27989214458788       -2.48065681578290
H            5.64960128081263       -2.63710172927491       -3.68452223369065
H            7.49697658030956       -3.58645584787168       -5.06011126163209
H            9.83209071695365       -3.26206153557798       -4.32796867776801
H           10.34333028062800       -2.02014602126050       -2.31919340262388
H           10.70465534476410       -0.84673629559843       -0.79873573282574
H           11.15595018974149        0.52245142584737        1.14707997881086
H            9.29191111980233        1.46450400659910        2.47406149486073
H            6.98227001701292        0.96997078444980        1.84890945893807
H            5.57508996966450       -1.13389397543095        2.73666044497363
H            4.94694291153708       -0.01867204491499        4.84966067965646
