95
 energy: -147.772518136387 gnorm: 0.000126283642 xtb: 6.7.1 (edcfbbe)
C            4.72096549927301       -4.70467816433255        0.68572037523064
C            5.43674635083859       -3.97524576873005        1.62285606456152
C            5.69380278234093       -2.63383832561736        1.41320533700671
C            5.23184613129770       -2.01414548711027        0.25277952011368
N            5.47431626024671       -0.64921615869601        0.03526375703546
C            4.47881146996787        0.35407585125537       -0.08308085021770
C            3.10976866321013        0.23765890654580        0.13864090561198
C            2.44167262767765       -0.88002572305004        0.73109796637543
C            1.09019984981210       -0.89251666747686        0.87573402122554
C            0.27082391445328        0.19407206145385        0.47085920531872
C           -1.16070607702386        0.15362130995663        0.62439219474139
C           -1.91377356036629        1.33232314287660        0.76124733405006
C           -3.28968337297780        1.30033112477655        0.91204755852819
C           -4.05141049663746        2.55039035425986        1.06461093682304
C           -3.57165301389751        3.58628436304132        1.86278074414063
C           -4.29626745592574        4.75610860411531        1.99910927372045
C           -5.50473867766816        4.91215059877968        1.34572769199763
C           -6.00156815823411        3.88958243711143        0.54032398585473
C           -7.28360468046608        4.04352334039721       -0.15820431062762
C           -7.46943583773266        3.58764231877834       -1.46242630317005
C           -8.69960360906587        3.75877020046625       -2.07196748681943
C           -9.70841513727398        4.38727981314023       -1.35729062222304
N           -9.55015666132633        4.82009092878385       -0.11817763704898
C           -8.37814525967334        4.65033084251330        0.46111988077936
C           -5.26647784023394        2.71639833287838        0.40939177805064
C           -3.94973487333381        0.07160023450369        0.91905759615763
C           -3.23165963006371       -1.11630524801808        0.78318873196631
C           -3.93782524350979       -2.40735263380328        0.78615642029528
C           -3.42624587791860       -3.49845683834196        1.48471642357913
C           -4.10130299353859       -4.70512118548729        1.48724632234870
C           -5.28723202834807       -4.84519956592071        0.79029208260416
C           -5.81540764154075       -3.76732715548989        0.08307653274579
C           -7.07489818160940       -3.90339040610285       -0.65850802369339
C           -7.37779140010080       -5.05273904076235       -1.38676700031633
C           -8.57972740232461       -5.12670073547715       -2.06804572392284
C           -9.44260144129703       -4.04280976807220       -2.00357325130842
N           -9.17351307833676       -2.94782617813068       -1.31311802432427
C           -8.02932235461723       -2.88409764280811       -0.66111478546838
C           -5.13338670914859       -2.55534852895640        0.09225039589742
C           -1.85524530897229       -1.06863955915879        0.64276752621673
C            0.93856788130952        1.32876601841204       -0.06515106041783
C            2.28525606935291        1.35613573109139       -0.22220547618312
N            5.05353530706125        1.54183989632291       -0.38895938770628
C            6.35633448205309        1.34354868048149       -0.41835814285450
C            7.37860300693762        2.31549846929449       -0.63540026597719
C            7.05261048064317        3.66132391029959       -0.81058944179248
C            8.04459048554152        4.60207947569160       -0.98142082338488
C            9.37277293535392        4.19483835293635       -0.96909697596961
C            9.70423407528822        2.86503052414053       -0.80228268410165
C            8.72315996344135        1.87887961677662       -0.63902101540039
C            9.03637062622428        0.46563605460008       -0.49808768454674
C           10.34682464866318       -0.00327599466252       -0.59280260925523
C           10.65989280154669       -1.34411231232900       -0.50214664540246
C            9.64573299535664       -2.28634512749357       -0.32912875057263
C            8.34491020640407       -1.87438850164125       -0.22232711271186
C            7.99851955518513       -0.50425975104612       -0.28228738429055
C            6.68070021960275       -0.03127805907389       -0.17906637189787
C            4.51212248995959       -2.74752749977646       -0.68878458936081
C            4.26050209693027       -4.08808596246220       -0.46710813226482
H            4.52154591958006       -5.75182174395003        0.85511479896552
H            5.79173311211519       -4.45216342662805        2.52419952253868
H            6.24781479994642       -2.05586230844890        2.13847991593165
H            3.01783557617476       -1.70515570733789        1.11625762662792
H            0.62977196127345       -1.73896448140539        1.36349104750758
H           -1.41164648845510        2.28720038048329        0.76552219799057
H           -2.63853374230384        3.46462369274686        2.39275102075247
H           -3.91632374178170        5.55338009134572        2.62128973944661
H           -6.05747633128537        5.83484590357476        1.44173027551507
H           -6.65196199892706        3.12336379532803       -1.99611719319274
H           -8.87064935674788        3.41793497596150       -3.08155922016708
H          -10.68585626881680        4.55350642281894       -1.79037317547591
H           -8.30810705235947        5.00245902446958        1.48246269999878
H           -5.64681275197932        1.91854987667362       -0.21221616628226
H           -5.01750144670227        0.03679819178414        1.07469449761747
H           -2.50851163356023       -3.39146780290739        2.04401026520905
H           -3.70271784454204       -5.54286351033497        2.04104616291853
H           -5.81838784007230       -5.78552617323602        0.81141445249955
H           -6.66931992383970       -5.86795953402948       -1.43203669412345
H           -8.83879554383899       -6.00290173188667       -2.64253802218923
H          -10.39047504343912       -4.04611133424880       -2.52539012822779
H           -7.86836270267717       -1.97656046303788       -0.09307690638197
H           -5.51999124332113       -1.72563614077760       -0.48160630026418
H           -1.31516669272036       -1.99006396887163        0.48698892193185
H            0.35415936106420        2.17489359506092       -0.39347679334591
H            2.78199019914778        2.21190909420061       -0.64977960551433
H            6.00870595778361        3.93311578435206       -0.80065256640598
H            7.79602069929064        5.64375060021186       -1.11718288961540
H           10.15942752992947        4.92528214170733       -1.09181653509537
H           10.74984747743300        2.60171325767876       -0.79662272807057
H           11.15489254378224        0.69227975610590       -0.75309419424838
H           11.68798948540230       -1.66399384273622       -0.57972797622661
H            9.88597212399440       -3.33819014952662       -0.28451383842381
H            7.56500851019041       -2.60925146249065       -0.11034185656068
H            4.15356499900658       -2.25605080627750       -1.58087721209353
H            3.70496070872279       -4.65490128443274       -1.19902006764215
