74
 energy: -122.962775744384 gnorm: 0.000058133842 xtb: 6.7.1 (edcfbbe)
N           -3.48141690912610       -5.17975556848478        1.25945210197732
C           -2.49116567697124       -4.58507001778058        1.18122788134659
C           -1.27421756386608       -3.92811491873712        1.10514446026112
C           -0.06134340519504       -4.65255100663155        1.27697718027442
C            1.14107296437690       -4.05863702657933        1.07395963555932
C            1.19265090256937       -2.67822917901732        0.68189244143382
C            2.39313641533977       -1.93812245707282        0.48793192313361
C            2.31388863836571       -0.55466982789037        0.18768536467678
C            3.43439287405444        0.20208815541420       -0.01127861977325
C            4.70504698305658       -0.38466585019005        0.07203618515347
N            5.86838310666609        0.39159326861280       -0.13464284670715
C            6.70875005656837        0.13142251252342       -1.20772723871534
C            6.42374584789052       -0.85538640242421       -2.14985938719736
C            7.28649264023508       -1.09338401500484       -3.20407334365252
C            8.44416296095487       -0.34791956640634       -3.34692278784408
C            8.72953758578782        0.65756794641981       -2.43781795980194
C            7.87022295417822        0.90350458185112       -1.38067802520965
O            8.19484830544892        1.92987271923888       -0.53713442567947
C            7.34871225534876        2.18587696058516        0.50625562889021
C            7.68750651303219        3.22600289371361        1.35466629530642
C            6.88984315928319        3.51957428747889        2.44853907757962
C            5.76222374574384        2.75693063985788        2.69942286802508
C            5.41581575947417        1.71696341593912        1.85618095819576
C            6.18939210679962        1.42476673053864        0.73416710856411
C            4.80958937929120       -1.74904581313589        0.36218124504813
C            3.68584856251970       -2.50546398311696        0.57116340661093
N            0.03185229426316       -2.02232741717967        0.52500339412172
C           -1.14267688653977       -2.54799104672905        0.73362062221552
C           -2.29757086297073       -1.68048456088165        0.51988007171708
C           -3.48134830342085       -1.82656674689601        1.24743653145717
C           -4.55177274323350       -0.98778588210571        1.02100369540514
C           -4.46469498019196        0.01435015261832        0.05914007967329
N           -5.57451712200590        0.85964823808133       -0.18976955975331
C           -6.74852221869637        0.33928920105625       -0.72254531887493
C           -6.87882309716768       -1.00432250159293       -1.06329909997009
C           -8.06445518628109       -1.48565956125797       -1.59020140203919
C           -9.13749197058782       -0.63685778341780       -1.79585848400258
C           -9.01735743435546        0.70820152300966       -1.48644866634255
C           -7.83456165014874        1.19754469652473       -0.96016834228985
O           -7.77493555859823        2.54073497723525       -0.70087695277645
C           -6.61355409062887        3.03572046928852       -0.17410754579136
C           -6.57039835016084        4.39201916329662        0.09813782283758
C           -5.43383305908304        4.95481628396994        0.65596511308590
C           -4.34776830482452        4.15168342883800        0.95426928145344
C           -4.38233833716421        2.79488365185993        0.68356611662225
C           -5.50558209552658        2.21634607956915        0.09862910032259
C           -3.28258343629415        0.18327163671356       -0.65892805381524
C           -2.21331244969501       -0.65165884777426       -0.42489380882253
H           -0.12570371490558       -5.69001177213268        1.57566002141354
H            2.05664921966377       -4.60214053832319        1.23913392299310
H            1.33092432818225       -0.11541752170971        0.11289547617962
H            3.35593734011617        1.25289382096611       -0.25272185123262
H            5.51609983359687       -1.42905987906680       -2.05273083608416
H            7.04633334734799       -1.86505173956664       -3.91877235691594
H            9.11907780433605       -0.53612535175393       -4.16662084105816
H            9.61249775577953        1.26905575036677       -2.53197602563540
H            8.58280098106553        3.78799002388275        1.14250717589132
H            7.15839604217387        4.33241719393257        3.10431498400923
H            5.14601718643881        2.96606273500888        3.55996498322087
H            4.54511891632547        1.11694102620923        2.06625090067609
H            5.79129490698305       -2.19554857351969        0.43862780330214
H            3.80274562868067       -3.55136327491652        0.80694713158112
H           -3.55840180425162       -2.58758838549634        2.00725669338029
H           -5.46200361033481       -1.10024807373264        1.59143357210552
H           -6.04566708334675       -1.67291865693872       -0.91751079676062
H           -8.14206490786799       -2.53181754972355       -1.84111180303321
H          -10.06287955423740       -1.01209332182444       -2.20287321418168
H           -9.82893899849850        1.39912605900548       -1.64899175267061
H           -7.43982937195822        4.98709203897425       -0.13064608530050
H           -5.40656470665298        6.01271227831791        0.86325811886307
H           -3.46452209427490        4.57718645658638        1.40462736599854
H           -3.53658416753335        2.17396178071328        0.93228146269800
H           -3.21967383189863        0.96246472500620       -1.40492394811886
H           -1.29696013364698       -0.53510965931988       -0.98273682406714
