74
 energy: -123.033017627567 gnorm: 0.000056923453 xtb: 6.7.1 (edcfbbe)
N           -3.35924779558161       -5.40432417172712       -0.31184914814315
C           -2.40437860541084       -4.78199367229467       -0.17502032639424
C           -1.18920028630568       -4.07999232919938       -0.04660581011704
C            0.00605608057468       -4.80525376631165       -0.03960072873731
C            1.20941615824731       -4.13480501212382       -0.00816370798059
C            1.19855377631518       -2.73404155473356       -0.02116287027568
C            2.42099585845870       -1.92823585173217       -0.05214862745018
C            2.36622796341043       -0.59700516963028        0.36700866246838
C            3.49074869151575        0.19855954691310        0.34442093474754
C            4.70340645657547       -0.31728861055949       -0.10933750122365
N            5.85428540652818        0.49296415384098       -0.14487386728927
C            5.89522213645844        1.63580310154770       -0.94959016648862
C            4.83720692771947        2.00595786047929       -1.77030038761116
C            4.91393158283840        3.14361628059633       -2.55938973759998
C            6.05225452467246        3.92354140304351       -2.55142560712132
C            7.13016040694677        3.54955694311966       -1.76294681106879
C            7.05948256925937        2.41519340235971       -0.97581687799225
O            8.17968411059053        2.09256953325659       -0.25139056773859
C            8.12737530097542        0.96338584490343        0.52639929683652
C            9.25926623608981        0.65452272038960        1.25759854931096
C            9.27278996014318       -0.45169686730330        2.09410816507538
C            8.14015718367490       -1.23186112273105        2.20693110699154
C            7.00311463566025       -0.92772502123085        1.47387498208816
C            6.98446042153055        0.15642113764306        0.60533283786916
C            4.76442061118218       -1.64171506950442       -0.53682176257462
C            3.63768784609904       -2.43692981168164       -0.50691477574193
N            0.05796827239065       -2.05245787572134        0.00671137103849
C           -1.11031394728537       -2.67231313045812        0.01699834565320
C           -2.28980402074666       -1.80454999319395        0.07572357717817
C           -3.46408602264392       -2.18583456911177        0.72226342117900
C           -4.54775701236071       -1.33245097325432        0.76320757216490
C           -4.48093805269927       -0.08011920129668        0.15791026497699
N           -5.59051189112828        0.78647382648861        0.19234554969700
C           -6.79618067975696        0.42386401119361       -0.41605176519498
C           -6.94997528539886       -0.77073346351016       -1.10821577614895
C           -8.15859090576059       -1.09480554512888       -1.70568449227710
C           -9.22910541542223       -0.22715432955323       -1.63177751025499
C           -9.08242161285653        0.98341526418658       -0.97093705472439
C           -7.87906133865353        1.31213252002393       -0.37522631576806
O           -7.80229736332018        2.54212214449595        0.23036239533328
C           -6.61352073809902        2.88161664683913        0.82553157028536
C           -6.55557469244458        4.11417908024807        1.44891655780591
C           -5.39916803910672        4.51611670334503        2.10092518558491
C           -4.31151817535153        3.66787066644080        2.13954771465918
C           -4.36374281648404        2.43119002812388        1.51436835532401
C           -5.50260557730601        2.02733698902548        0.82877677217329
C           -3.30294964450049        0.31241832321315       -0.47522053412059
C           -2.21982572240014       -0.53831053686053       -0.50783989331171
H           -0.02784781935037       -5.88535904380571       -0.06420162903970
H            2.13601018466665       -4.68378754755314        0.02871330726761
H            1.42395241796985       -0.20791367606400        0.71945919395877
H            3.44374318603389        1.22306432149587        0.68290967137599
H            3.94794361731391        1.39637883314894       -1.80196842871756
H            4.07406451623878        3.40900315655781       -3.18284099364529
H            6.11553641617840        4.81161418016684       -3.16004526559046
H            8.04267307472914        4.12375455549118       -1.74879229009291
H           10.11935191696330        1.29770879939373        1.16193001160380
H           10.16144492232641       -0.68658868769308        2.65820886366680
H            8.12713205069227       -2.08333819891848        2.86981875010029
H            6.11874613527483       -1.53513641039405        1.58642758038020
H            5.70014184410202       -2.03665403980136       -0.90440935345752
H            3.70371515386188       -3.45021819971225       -0.87279407561152
H           -3.52580035322221       -3.13981614208747        1.22279786737114
H           -5.45168210799027       -1.62767350000349        1.27463683941657
H           -6.11788476961096       -1.45223205373261       -1.18949062472526
H           -8.24979093783872       -2.03235650542715       -2.23190976940967
H          -10.17248146281245       -0.47618442639203       -2.09135464214950
H           -9.89184288285080        1.69332445148827       -0.91094550695193
H           -7.43057836802889        4.74345131264199        1.41690560816247
H           -5.36245428531899        5.48082830562559        2.58177884180972
H           -3.41144964445076        3.95684941178110        2.66016031010374
H           -3.51240047318233        1.77095998901073        1.56844992939609
H           -3.25079842926129        1.28393686171965       -0.94416185002144
H           -1.30523968451039       -0.24516041568099       -0.99946312272411
