61
 energy: -97.433967149383 gnorm: 0.000050368557 xtb: 6.7.1 (edcfbbe)
C           -7.22660326411012        0.36885082338570        2.37155171086314
C           -6.58716347563999       -0.86732393928967        2.34233890001307
C           -5.44907129628713       -1.07263280626993        1.57922663086516
C           -4.96955241700657       -0.00766319386536        0.82985945777153
C           -5.59759105135814        1.26129296832653        0.87780090082982
C           -6.73576187503083        1.44435922673011        1.65107975028077
C           -4.81572804688703        2.13597686642214        0.04744917336531
C           -4.93607632408482        3.47140224431978       -0.31267097941629
C           -3.99966457016605        4.01064236043894       -1.17813209285829
C           -2.96930988276582        3.23210660555876       -1.69765311596821
C           -2.83102862949145        1.89678383658046       -1.35410389600389
C           -3.74569559422282        1.35873669652498       -0.45976708422071
N           -3.85122114113641        0.06722327127891        0.02148016254084
C           -2.97284989591919       -0.97927375757086       -0.26561362822640
C           -3.48999297973862       -2.23321313626084       -0.63725263718924
C           -2.61385208461622       -3.27869262341774       -0.93742536581598
C           -1.26084886306778       -3.06053424807776       -0.85670732942607
S           -0.00554157980267       -4.24064311517844       -1.18675941481001
C            1.25328676463682       -3.06479729303347       -0.85445054296093
C            2.60563489074978       -3.28770932508986       -0.93264241731742
C            3.48492041713668       -2.24511762249006       -0.63128103999758
C            2.97134496071406       -0.98917767489587       -0.26186702930568
N            3.85251560934532        0.05485138211478        0.02604514792222
C            4.96716416891914       -0.02188336201690        0.83918917479071
C            5.44055360690563       -1.08713182823141        1.59204422800173
C            6.57576103433510       -0.88374550217374        2.35990486818256
C            7.21835696940974        0.35078334416020        2.39020181049929
C            6.73376332190295        1.42649649983827        1.66582812867950
C            5.59852960520720        1.24539532320926        0.88779856349571
C            4.82266453984643        2.12090812355135        0.05265237918327
C            4.94821936994601        3.45532729767231       -0.30942197014893
C            4.01694970646543        3.99556104639623       -1.17979792567563
C            2.98650962774428        3.21899673962319       -1.70213876321267
C            2.84304672404289        1.88474171913663       -1.35671391857839
C            3.75261444337078        1.34579134637253       -0.45771957788797
C            1.60434895036432       -0.76223844219412       -0.18006920495142
C            0.70238247759316       -1.80077171801359       -0.47624265295912
C           -0.70631928690713       -1.79841417939569       -0.47719668079321
C           -1.60520501495871       -0.75714453991053       -0.18128884528789
H           -8.11314240226036        0.49061196941936        2.97626093638632
H           -6.98177529880603       -1.68266388697852        2.93009857819688
H           -4.94637152155201       -2.02732371645424        1.58048326045470
H           -7.22200494186165        2.40713709496438        1.69204034271748
H           -5.74656180498988        4.07193682839208        0.07126734733327
H           -4.07478664512399        5.04850063560306       -1.46739307361595
H           -2.26609327536446        3.67460976684082       -2.38730170229884
H           -2.04380095580928        1.29463124455484       -1.78091200474274
H           -4.55329464208860       -2.36782055558081       -0.74350296673815
H           -2.99969227562356       -4.23805360758859       -1.24669035415379
H            2.98865220237067       -4.24855908824050       -1.24078595915675
H            4.54798839872003       -2.38363307744927       -0.73488531316533
H            4.93536479171273       -2.04051632622265        1.59214982076388
H            6.96559348705783       -1.69927084953891        2.95058735028685
H            8.10246567232161        0.47107242135382        2.99875149929366
H            7.22244697813847        2.38800774795327        1.70753198934053
H            5.75874532011865        4.05435463852261        0.07678678458431
H            4.09620475241163        5.03266220646464       -1.47066879950887
H            2.28735151557767        3.66225291268409       -2.39542499151049
H            2.05581580008317        1.28394710277814       -1.78543905793557
H            1.23185297033325        0.19172546029330        0.15833445709947
H           -1.22991128169576        0.19496914043551        0.15920460123973
