61
 energy: -97.534709374891 gnorm: 0.000046456682 xtb: 6.7.1 (edcfbbe)
C           -7.17932655807080        0.38264800943736        2.43552897508118
C           -6.52483807849797       -0.84754359094975        2.41878551514301
C           -5.39911027688132       -1.05589234023936        1.64468122270678
C           -4.93964616039599        0.00023990609562        0.87004112708946
C           -5.58233611752816        1.25957377581886        0.90040087614695
C           -6.71230849160456        1.44478357931521        1.68696414013198
C           -4.82877917951313        2.12382357776740        0.03504653262558
C           -4.97108062676794        3.45143240634666       -0.34868248632958
C           -4.05875473698410        3.98562701634504       -1.23686331256987
C           -3.02395875014410        3.20870174340944       -1.75386495557607
C           -2.86249628991713        1.88584763800435       -1.38786296374008
C           -3.76141810470688        1.34972104898041       -0.47609897411347
N           -3.84066216261691        0.06826936505411        0.03545827017984
C           -2.95870503910862       -0.98293890558694       -0.25380952934187
C           -3.46450786206316       -2.22609044123540       -0.65269008283608
C           -2.61472959914263       -3.27183960798875       -0.94822634104246
C           -1.24677132571946       -3.06399752446630       -0.86342407371537
S           -0.00161037408253       -4.24164189327555       -1.22019913364949
C            1.24502827329988       -3.06519029911875       -0.86468203593027
C            2.61270808972712       -3.27436747803202       -0.95072962314698
C            3.46380543926470       -2.22947704563244       -0.65588541770514
C            2.95953412026901       -0.98583957377137       -0.25665098775468
N            3.84256983311869        0.06457325084997        0.03226914808734
C            4.94041679469637       -0.00375495079677        0.86829801605110
C            5.39919447549711       -1.06037160839158        1.64267145811761
C            6.52371092102348       -0.85221300601106        2.41858680429257
C            7.17765368574858        0.37824051431004        2.43732965813518
C            6.71142345735872        1.44076119475558        1.68881873703495
C            5.58270711271813        1.25574769369170        0.90040793503665
C            4.83012838066490        2.12038068685769        0.03457770857782
C            4.97256421830553        3.44826677119156       -0.34815633172533
C            4.06128987654424        3.98272759008147       -1.23726020825463
C            3.02738641735441        3.20584583490389       -1.75612456214940
C            2.86576928670142        1.88274550565587       -1.39109948137172
C            3.76363549185981        1.34634313221485       -0.47845874503188
C            1.59042716117511       -0.78463508648151       -0.15834493232082
C            0.72012028406542       -1.82100525076582       -0.47481498146949
C           -0.72032288266511       -1.82032190508576       -0.47403537801715
C           -1.58931817185530       -0.78312412253858       -0.15658232867313
H           -8.05838510281220        0.50472898330617        3.05131160697463
H           -6.90370307638948       -1.65564483130806        3.02758335102537
H           -4.89020360954697       -2.00797032038612        1.65373239985568
H           -7.20972200941069        2.40293848286576        1.71259291435189
H           -5.78233519888923        4.04895298434999        0.03979284944651
H           -4.14987744041514        5.01682454095810       -1.54538049776377
H           -2.33393220203910        3.64966387772291       -2.45861912580854
H           -2.06802866972316        1.28910940976882       -1.81024140366320
H           -4.53193182327525       -2.35628126566307       -0.74299261024065
H           -3.00397854434729       -4.23015371402121       -1.25488952974516
H            3.00071390404514       -4.23307372787978       -1.25775308305555
H            4.53103072126531       -2.36075356496060       -0.74698968440622
H            4.89069315040595       -2.01267756947854        1.65012382514534
H            6.90200556242458       -1.66066227893045        3.02727759635389
H            8.05567625744624        0.50020720177237        3.05461127732019
H            7.20843435412556        2.39908445900198        1.71594548680800
H            5.78310418240448        4.04580191250377        0.04178594705138
H            4.15254324919089        5.01413177418542       -1.54504733936131
H            2.33822216647796        3.64703662753223       -2.46157874279166
H            2.07199972627171        1.28600876707203       -1.81480563556026
H            1.20573236541719        0.16879795831131        0.16875017249535
H           -1.20333208891439        0.16982967918124        0.17037576216418
