61
 energy: -97.534721714567 gnorm: 0.000060770350 xtb: 6.7.1 (edcfbbe)
C           -7.17699979107609       -0.29462614642522        2.33447551044294
C           -6.52425857104233       -1.50890523375883        2.13083692679082
C           -5.39942249739435       -1.59894306933208        1.33292999095776
C           -4.93862122458691       -0.43791440794575        0.72782719358199
C           -5.58053843967904        0.80289345790589        0.94779023776827
C           -6.70991144848494        0.86794070410708        1.75403427896202
C           -4.82592588525875        1.78750066833466        0.22338577353949
C           -4.96703236958155        3.15787493820699        0.04388636977500
C           -4.05340575109757        3.81921125011145       -0.75264983048130
C           -3.01702196376919        3.12872883069631       -1.37791863212523
C           -2.85668159775418        1.76577556240922       -1.21526304305833
C           -3.75772766644662        1.09894624564006       -0.39664976016691
N           -3.83850246642835       -0.24506329460372       -0.08502126745246
C           -2.95853280827718       -1.23972091660843       -0.53568732959017
C           -3.46434451660832       -2.40161134811078       -1.13087848795134
C           -2.61418640527581       -3.38549175705898       -1.59192739291074
C           -1.24618256798095       -3.19450426321748       -1.47351421184843
S           -0.00003390963402       -4.29744515696439       -2.01737687246651
C            1.24613269109384       -3.19452574339860       -1.47351198789703
C            2.61413354283995       -3.38553432403088       -1.59192603901984
C            3.46430715542338       -2.40166432859266       -1.13088333197815
C            2.95851398155910       -1.23976448956544       -0.53569457849459
N            3.83849804595459       -0.24511535648914       -0.08503840655560
C            4.93862254896932       -0.43797419485646        0.72780059559916
C            5.39941738359055       -1.59900501245059        1.33290434835733
C            6.52426225115717       -1.50897552657400        2.13079976398089
C            7.17701368680655       -0.29470110564547        2.33443332954582
C            6.70992854611543        0.86786912548783        1.75399627753375
C            5.58055159588257        0.80282869641481        0.94775714707441
C            4.82595218334757        1.78743789822379        0.22334180770272
C            4.96707767770926        3.15780828518737        0.04382673456376
C            4.05344720957976        3.81915168749594       -0.75269929576694
C            3.01704412846333        3.12867900117115       -1.37794699668955
C            2.85668927587629        1.76572868557547       -1.21528154865360
C            3.75773550944370        1.09889358054952       -0.39667306644220
C            1.58934746658631       -1.05986561260344       -0.40392937972051
C            0.72013164066583       -2.03194000828238       -0.88444095348179
C           -0.72016300535724       -2.03192706845763       -0.88444250379799
C           -1.58936342352683       -1.05984091419248       -0.40392687680815
H           -8.05497614536188       -0.26584752394841        2.96317662457285
H           -6.90409785091647       -2.39957810101302        2.61000034035195
H           -4.89197293382546       -2.54198818416649        1.19601600915793
H           -7.20674359821195        1.81153948773895        1.92403074759760
H           -5.77911628747989        3.69044137703725        0.51607918383348
H           -4.14382392041642        4.88514810115592       -0.90268357045615
H           -2.32573901669578        3.67021286844607       -2.00734207305791
H           -2.06110419661666        1.23890075929418       -1.72040729075418
H           -4.53181639553003       -2.51549400354210       -1.24105705690163
H           -3.00325322596260       -4.28118164376552       -2.05049834629237
H            3.00318622633792       -4.28123011764205       -2.05049748553176
H            4.53177700064900       -2.51556273676485       -1.24106489805047
H            4.89195318350729       -2.54204420078923        1.19600405562208
H            6.90409221668866       -2.39964866020662        2.60996995122176
H            8.05500063844149       -0.26592997023354        2.96311981086699
H            7.20678339111328        1.81146029013841        1.92396867907346
H            5.77915986737294        3.69037146996908        0.51602586844565
H            4.14387143587117        4.88508777409586       -0.90273323234990
H            2.32576656998050        3.67016600042739       -2.00737348616302
H            2.06110583507240        1.23885908469089       -1.72042149194406
H            1.20394328427453       -0.17295465222494        0.07447299140460
H           -1.20394529007302       -0.17293575704897        0.07447517652671
