61
 energy: -97.433962004667 gnorm: 0.000080870861 xtb: 6.7.1 (edcfbbe)
C           -7.18738067072565        0.37187100146332        2.42723151940901
C           -6.54002678733561       -0.86027144878194        2.40053471367661
C           -5.41472016695031       -1.06670623132356        1.61903209198026
C           -4.95658875452489       -0.00704823267303        0.84907712656775
C           -5.59262100942808        1.25802964430863        0.89320460453762
C           -6.71786436940878        1.44210952841754        1.68497842699100
C           -4.83156555863202        2.12795134826366        0.03870808070586
C           -4.96776236304941        3.45769677132791       -0.33642003355540
C           -4.04971276918809        3.99253352188978       -1.22407164647824
C           -3.02173302980366        3.21524752783418       -1.75022754798691
C           -2.86803116135403        1.88538561974538       -1.39241449025252
C           -3.76474018953189        1.35203198581075       -0.47734088631927
N           -3.85341127486630        0.06577230502495        0.02023639530810
C           -2.97276135531399       -0.97904057475192       -0.26679596999212
C           -3.48839812955445       -2.23872382850035       -0.62017809962457
C           -2.61070789809355       -3.28455921706146       -0.91475954350025
C           -1.25803409812238       -3.06122872978121       -0.84398400967220
S           -0.00140867224140       -4.24302573099169       -1.16284099647665
C            1.25599200420910       -3.06206640433308       -0.84394780139768
C            2.60851706816323       -3.28630606524984       -0.91467150162833
C            3.48689531951627       -2.24104233665243       -0.62010279220127
C            2.97209381452737       -0.98100309368703       -0.26673922526248
N            3.85347590700499        0.06321054799548        0.02024636268144
C            4.95676853439322       -0.01045052977324        0.84886430755917
C            5.41411327624645       -1.07038655671533        1.61890960203754
C            6.53976023163052       -0.86482373542957        2.40013207432797
C            7.18819601766173        0.36675388166943        2.42650433323872
C            6.71943274298801        1.43730631892195        1.68422759817288
C            5.59388138917168        1.25408969496877        0.89271050527666
C            4.83346961729279        2.12451421379867        0.03815577138950
C            4.97080235275319        3.45404768357828       -0.33725554059913
C            4.05299051740421        3.98958461950918       -1.22472998155971
C            3.02412018086296        3.21317939239342       -1.75042398113772
C            2.86930414769593        1.88352626840223       -1.39236122993737
C            3.76578244977879        1.34949517606257       -0.47745690268503
C            1.60498282272748       -0.75157286164135       -0.19602446155587
C            0.70376041181848       -1.79359360729669       -0.48269719777129
C           -0.70496424028182       -1.79312790837358       -0.48271817682068
C           -1.60549663452624       -0.75051144294950       -0.19607924585160
H           -8.06341220629169        0.49467075871814        3.04687179149068
H           -6.91818664640154       -1.67142470099487        3.00468164158060
H           -4.90574424621477       -2.01809238855461        1.62086149986903
H           -7.21014751711872        2.40190206175905        1.72391989730579
H           -5.77615633675886        4.05741163069825        0.05320622722345
H           -4.13740129318870        5.02605119343424       -1.52514403319930
H           -2.33262456831463        3.65455718125588       -2.45598249210015
H           -2.08287048983153        1.28348301568235       -1.82337969936907
H           -4.55212344451975       -2.37838867681507       -0.71536532810259
H           -2.99510015792005       -4.24885264630444       -1.21016758096433
H            2.99226576224724       -4.25084302830736       -1.21011027138460
H            4.55052958122868       -2.38140874587366       -0.71527098745652
H            4.90424684171107       -2.02129560627669        1.62106788733956
H            6.91728285640599       -1.67618820110864        3.00439246721540
H            8.06450943123421        0.48885492644443        3.04588469966811
H            7.21265942199734        2.39662462513995        1.72278857037329
H            5.77969833947780        4.05315963796896        0.05225506228443
H            4.14144778306216        5.02301842518264       -1.52587210456729
H            2.33526827199995        3.65297957814081       -2.45612471025143
H            2.08357496177573        1.28223432577247       -1.82315130428135
H            1.23168932199779        0.20692058788174        0.12853025355677
H           -1.23157583038494        0.20774184449160        0.12846690027609
