53
 energy: -90.699403357608 gnorm: 0.000069245681 xtb: 6.7.1 (edcfbbe)
O            3.89166089668999        0.05648397114978        2.25733254501851
C            3.12740643794799        0.02601926919477        1.31747275826415
C            1.66155424048372        0.00834901880024        1.47620265495181
C            1.11449842368790        0.00240263305311        2.74205284413357
C           -0.27243408350499       -0.01417278421582        2.91248552397034
C           -1.10753508063944       -0.01485321540119        1.82564065206621
C           -0.58315200702601       -0.00123986888320        0.51673894780639
C           -1.40394756743208        0.00052945821290       -0.64331508781022
N           -2.81999640890657        0.00605309786146       -0.51587880008885
C           -3.44264424382952        1.22635505902283       -0.25307517256974
C           -2.67233948758770        2.37123907188154       -0.04517174556044
C           -3.25727328472764        3.59542196704190        0.22631374351775
C           -4.63198035976600        3.71059733067949        0.30500688328967
C           -5.41293843603891        2.58970601997862        0.08610942351462
C           -4.83167848117315        1.36585490023153       -0.20226428066497
S           -5.94079679189175        0.03263596946563       -0.56144893402847
C           -4.85262902783415       -1.36122108100742       -0.47206478293073
C           -5.44960854442133       -2.61026695126790       -0.42406275736613
C           -4.68212300685518       -3.76116303077224       -0.39896620147220
C           -3.30480964781504       -3.64956455045085       -0.40950455225029
C           -2.70486897226002       -2.40316204120981       -0.44004250715618
C           -3.46212260127627       -1.23161240849566       -0.47847135782705
C           -0.84330699221397       -0.00881434990365       -1.89879363940331
C            0.54365270358555       -0.01039649517941       -2.05828067655192
C            1.37277116595311       -0.00078807210570       -0.95671638796890
C            0.82363281360812        0.00277566137186        0.34239528771827
C            2.83465649941981       -0.00265568170674       -1.14739598589789
O            3.35613075302315       -0.02762683659061       -2.24101788025467
N            3.59963172280481        0.01557598672101        0.01120431680428
C            5.02510435102608        0.02315812437722       -0.15845408999732
C            5.77192041543031       -1.06038844438166        0.27471918354663
C            7.14580044889934       -1.04641985745187        0.11360764573345
C            7.76561591195589        0.03761826883555       -0.48421285879672
C            7.01166849340360        1.11437205852376       -0.91880585689264
C            5.63822445325198        1.11384348134778       -0.75337800015986
H            1.77887129819012        0.00902841112195        3.59296226776089
H           -0.68425750902594       -0.02532220806660        3.90998345681288
H           -2.17858264237046       -0.02632045141263        1.96252005605420
H           -1.59717675674386        2.30808045077397       -0.10632320459818
H           -2.62628192125858        4.45799506411938        0.37624472521553
H           -5.09619803992185        4.65937941289993        0.52215907596282
H           -6.48991442737043        2.65158480663370        0.12092891835347
H           -6.52753903776589       -2.66490119551980       -0.41981627474979
H           -5.15841646084426       -4.72829715013496       -0.37281023675485
H           -2.68406586026885       -4.53215323671277       -0.39039490911452
H           -1.62771594174781       -2.33949898529195       -0.44063289156184
H           -1.48763752814884       -0.01370225972620       -2.76497860825678
H            0.98640020189191       -0.01507813341277       -3.04263823816321
H            5.27968773357265       -1.90160961826943        0.73860127108462
H            7.73190729209058       -1.88704745403836        0.45341874923458
H            8.83786788587057        0.04328253573505       -0.61163132627479
H            7.49300661071786        1.96061175024722       -1.38554480859707
H            5.04230139715441        1.94932158232123       -1.08800987709167
