53
 energy: -90.637167008379 gnorm: 0.000063709614 xtb: 6.7.1 (edcfbbe)
O            4.19001406360471        0.44197553890473        2.23545009924137
C            3.37943187473185        0.25034878054064        1.33691348640760
C            1.94224340916004        0.26801139409002        1.54556002994316
C            1.43400182989980        0.47515641385239        2.84410419394480
C            0.07894161755579        0.47676124103259        3.05962133445437
C           -0.81299254117725        0.29559256957850        2.00098658544442
C           -0.34377428203366        0.10773768225056        0.69460303428606
C           -1.19427474199841       -0.11223282582527       -0.42081370337766
N           -2.60560910163111       -0.08286738038231       -0.26198185373952
C           -3.21039135859226        1.14060136148835       -0.03046491210096
C           -2.42578347575137        2.30386070720549        0.00712968103109
C           -2.97844522111724        3.53853739954009        0.26352064830607
C           -4.34446459956130        3.66903588885905        0.47908896373308
C           -5.14444004631424        2.54923415282148        0.40050890112316
C           -4.59306862555766        1.29855623027052        0.14159574794155
S           -5.73982858709435       -0.02401557183678       -0.01121587923390
C           -4.68136477732900       -1.39211416165803       -0.31678850568086
C           -5.30938113307579       -2.62327972972697       -0.46873498571344
C           -4.57110519024101       -3.77258936090380       -0.65707543221678
C           -3.18458484426940       -3.69135269224554       -0.65850850144641
C           -2.55544650364460       -2.47553772567198       -0.51012659872379
C           -3.28328136745377       -1.28291114046755       -0.36948198767097
C           -0.66906478857837       -0.37079443996903       -1.70210436802859
C            0.67983815687792       -0.37387999837690       -1.91157136749642
C            1.56827755364318       -0.14611404665851       -0.83072978446909
C            1.06243798707173        0.08396723533935        0.46384755219249
C            2.99394815534802       -0.17329051443115       -1.07505924078063
O            3.48528520751607       -0.38496823766235       -2.17919386296045
N            3.80905352457811        0.03266309649996        0.03397706457049
C            5.22135985844748        0.01090785484620       -0.18801388586601
C            6.00055944871917       -0.95502383736245        0.42953864141021
C            7.36717387672633       -0.96786721597266        0.21648775908721
C            7.95113752398357       -0.02918064976009       -0.61682426332670
C            7.16685182456305        0.92958517833198       -1.23526221931132
C            5.80095183886568        0.95660582786309       -1.01940866405091
H            2.14000224931483        0.62447585381678        3.64526361595081
H           -0.31278980238453        0.62837273414348        4.05448115905146
H           -1.87547173818491        0.30488384881365        2.19703511052107
H           -1.36673079105390        2.22521281857475       -0.17361370363787
H           -2.33972520491461        4.40723942124732        0.28964245142968
H           -4.77984722057136        4.63320057990480        0.68640492518245
H           -6.21321812362954        2.62079599091719        0.53276215036403
H           -6.38744509253854       -2.65737893657104       -0.43011141718395
H           -5.06731120743441       -4.72186511328134       -0.77870660522671
H           -2.58897647786857       -4.58393679658537       -0.76763744288612
H           -1.47882139761423       -2.43413365963019       -0.49191663548469
H           -1.35896420180372       -0.52534055646292       -2.51931972425700
H            1.10589885802921       -0.53779665393021       -2.88792939039615
H            5.53687096819163       -1.68370589567075        1.07683467829843
H            7.97652256725093       -1.71710024887784        0.70012322053146
H            9.01815981623184       -0.04480977678670       -0.78452150607534
H            7.61986253400516        1.66352221642617       -1.88543669162218
H            5.18215095479869        1.70094903645013       -1.49685403006847
