53
 energy: -90.637181905435 gnorm: 0.000109529433 xtb: 6.7.1 (edcfbbe)
O            4.18666945948394        1.25502192339113        1.85406446433189
C            3.37749953220918        0.72183451733822        1.10452853321852
C            1.93974921670888        0.82993589963802        1.28136942429016
C            1.43054666390442        1.54075743831477        2.38710744697206
C            0.07516683451598        1.63491186529095        2.57823615783278
C           -0.81589983747302        1.05256694989069        1.67479283985161
C           -0.34580683816428        0.35939713521510        0.55219289245324
C           -1.19575838919998       -0.27649975005344       -0.39138813584856
N           -2.60639797858768       -0.17396635910907       -0.26750872745294
C           -3.19475389188933        1.05428600833350       -0.51779839002331
C           -2.39613254541204        2.13236931162485       -0.93062502789072
C           -2.93012249632723        3.38146481336996       -1.15443253320841
C           -4.29114548872963        3.60637004228881       -0.99152931499791
C           -5.10587785699470        2.55224315232172       -0.63785493674768
C           -4.57332019788801        1.28724382417909       -0.41092058787433
S           -5.73841346339184        0.02217161145288       -0.05151004199117
C           -4.70167877670491       -1.38006301973104        0.15872259021851
C           -5.34923128894176       -2.57215759070455        0.46350996967032
C           -4.62955301650794       -3.72194070476128        0.71140418836551
C           -3.24196778710013       -3.66661551341151        0.69071255256306
C           -2.59358236283144       -2.49016420803316        0.38785374176531
C           -3.30213601487484       -1.31886053074245        0.07466977661553
C           -0.66845521857485       -1.02353439637286       -1.46383695112183
C            0.68070255813217       -1.12293259087122       -1.64391844485599
C            1.56830453694588       -0.49414359462919       -0.73465434262076
C            1.06080082116883        0.23590353911564        0.35811684382980
C            2.99440858365202       -0.63156105014878       -0.93669735914993
O            3.48526617240175       -1.27481971170688       -1.85879149511276
N            3.80891247169359       -0.00544012657537        0.00225903954858
C            5.22137565910404       -0.12931921732179       -0.18074633242867
C            5.98787314233630       -0.76079145806401        0.78648803246537
C            7.35486837839503       -0.87302877152392        0.60798082801287
C            7.95192783214427       -0.36874907744666       -0.53471727653444
C            7.18035892997396        0.25560027047946       -1.49993775469072
C            5.81430629648048        0.38260773323494       -1.32442236949932
H            2.13596391591893        1.99359539814520        3.06527614096632
H           -0.31765800924721        2.17218739060959        3.42864650254554
H           -1.87851243451933        1.14531807667598        1.84674113149751
H           -1.34096414002161        1.97386694793599       -1.07868083757270
H           -2.28067700979276        4.18502510066342       -1.46391495960504
H           -4.71164397326233        4.58498153757148       -1.15777236033606
H           -6.17197284898972        2.68545821991871       -0.53498953404039
H           -6.42765014090892       -2.57333078253264        0.50698700017768
H           -5.14083021053548       -4.64282574658568        0.94095743664861
H           -2.66050065939642       -4.54550172529897        0.92054648062836
H           -1.51650362288880       -2.46108215292700        0.39855129941784
H           -1.35718461405285       -1.48006138234299       -2.16023896921159
H            1.10818644845687       -1.66371157348216       -2.47247865981520
H            5.51420607117690       -1.15235064356553        1.67376201545035
H            7.95414269913581       -1.36074369807812        1.36268458984353
H            9.01911425518951       -0.46259984251649       -0.67332323311205
H            7.64352339597009        0.65043150963010       -2.39223698682017
H            5.20573758350752        0.86875997612770       -2.07149958747710
