  53
        -90.69939077
 O          4.1234582583       -0.0088353769        2.2340290520
 C          3.3487258309       -0.0072498795        1.3023909025
 C          1.8845859913       -0.0154300345        1.4762331911
 C          1.3506532287       -0.0427713183        2.7473493926
 C         -0.0344830892       -0.0503925952        2.9321147442
 C         -0.8806641989       -0.0293663073        1.8541372324
 C         -0.3695778214        0.0008212997        0.5402511406
 C         -1.2027302682        0.0225645308       -0.6108707461
 N         -2.6177543928        0.0122821719       -0.4659161540
 C         -3.2475075647        1.2345494372       -0.2294192440
 C         -2.4846672137        2.3940140961       -0.0857918023
 C         -3.0764337691        3.6215267786        0.1541984406
 C         -4.4495328235        3.7242473477        0.2701634205
 C         -5.2230167510        2.5863911638        0.1235630233
 C         -4.6355608536        1.3592443755       -0.1361015366
 S         -5.7336600304       -0.0055270513       -0.3965920656
 C         -4.6226188192       -1.3757809808       -0.2415917199
 C         -5.1980683279       -2.6250156858       -0.0782539039
 C         -4.4129225000       -3.7622443384       -0.0095778161
 C         -3.0400246760       -3.6361944824       -0.1020305425
 C         -2.4605579015       -2.3881608082       -0.2475172706
 C         -3.2356584317       -1.2299923967       -0.3179035326
 C         -0.6562910600        0.0499236516       -1.8717793625
 C          0.7294185867        0.0556562397       -2.0458061168
 C          1.5702300164        0.0343928511       -0.9535583188
 C          1.0351221291        0.0070482802        0.3513216280
 C          3.0303877007        0.0313608169       -1.1593839950
 O          3.5411237139        0.0347195180       -2.2582683927
 N          3.8066974452        0.0117900102       -0.0087615518
 C          5.2307318718        0.0066848007       -0.1918042038
 C          5.9645184078       -1.1050775572        0.1889416727
 C          7.3370809566       -1.1046093451        0.0170027525
 C          7.9682492155       -0.0051386735       -0.5393248033
 C          7.2271680239        1.1000117720       -0.9216340168
 C          5.8550837252        1.1124409898       -0.7453956877
 H          2.0239755674       -0.0581653855        3.5910948560
 H         -0.4361638626       -0.0735967196        3.9335409297
 H         -1.9502292597       -0.0365025983        2.0024675296
 H         -1.4105705624        2.3380745404       -0.1709876796
 H         -2.4520094144        4.4961235743        0.2531494127
 H         -4.9184519370        4.6756697601        0.4646635261
 H         -6.2988472371        2.6369252307        0.1936392889
 H         -6.2736341054       -2.6919266226       -0.0191165690
 H         -4.8726204541       -4.7304987037        0.1088081057
 H         -2.4063612152       -4.5087455939       -0.0599710883
 H         -1.3864297660       -2.3145108471       -0.3170706639
 H         -1.3096819745        0.0646701239       -2.7309707394
 H          1.1615743416        0.0747066250       -3.0347385814
 H          5.4629298599       -1.9577384843        0.6209237193
 H          7.9131161102       -1.9674068641        0.3159623691
 H          9.0394988469       -0.0093896457       -0.6749132965
 H          7.7177846607        1.9582793500       -1.3555528290
 H          5.2689718270        1.9699618496       -1.0391898192
