  53
        -90.63401373
 O          4.1841174289        1.2375828224        1.8663999270
 C          3.3757158179        0.7113718128        1.1105962747
 C          1.9383572034        0.8234487594        1.2840999795
 C          1.4286650170        1.5274313662        2.3923387246
 C          0.0719666338        1.6251747022        2.5803307069
 C         -0.8177005947        1.0535936175        1.6708200630
 C         -0.3465494041        0.3656021056        0.5451356234
 C         -1.1953070779       -0.2625303175       -0.4047091393
 N         -2.6063452273       -0.1665522964       -0.2753257846
 C         -3.2009409666        1.0586634933       -0.5204208152
 C         -2.4078373318        2.1424020570       -0.9300554138
 C         -2.9489948139        3.3886297061       -1.1520708319
 C         -4.3115394462        3.6055264926       -0.9895083490
 C         -5.1206074468        2.5467065550       -0.6367497534
 C         -4.5810838472        1.2842591863       -0.4116762097
 S         -5.7382949723        0.0125113187       -0.0526463377
 C         -4.6936225407       -1.3828081817        0.1604963528
 C         -5.3334773854       -2.5778145231        0.4702255562
 C         -4.6063709532       -3.7229445786        0.7181240060
 C         -3.2188746040       -3.6602414782        0.6915038064
 C         -2.5780214021       -2.4812127500        0.3837363657
 C         -3.2942134910       -1.3137651592        0.0718449382
 C         -0.6686424752       -0.9995405213       -1.4814617530
 C          0.6819495145       -1.1009081164       -1.6599108870
 C          1.5678246821       -0.4827586313       -0.7441252814
 C          1.0599824512        0.2391771152        0.3532198735
 C          2.9935917618       -0.6238401220       -0.9439665936
 O          3.4840935525       -1.2634102967       -1.8690373018
 N          3.8089629861       -0.0082894599        0.0029910904
 C          5.2200842115       -0.1354084560       -0.1768931705
 C          5.9878491272       -0.7459980033        0.8035025897
 C          7.3547009015       -0.8614812908        0.6270194090
 C          7.9514688009       -0.3819696684       -0.5266553414
 C          7.1791589112        0.2214449334       -1.5048936305
 C          5.8133351522        0.3519431244       -1.3317775118
 H          2.1329007783        1.9724158924        3.0769166322
 H         -0.3207145627        2.1573947330        3.4340623328
 H         -1.8805242737        1.1505192931        1.8393899327
 H         -1.3520455565        1.9893709903       -1.0777836516
 H         -2.3040053803        4.1966853613       -1.4593259718
 H         -4.7375264305        4.5818993447       -1.1551118791
 H         -6.1874454775        2.6741436355       -0.5336592079
 H         -6.4117707258       -2.5850116991        0.5174043242
 H         -5.1115866662       -4.6460811152        0.9520236485
 H         -2.6317936137       -4.5356699379        0.9207876003
 H         -1.5011195483       -2.4460535068        0.3889928032
 H         -1.3566878699       -1.4497293000       -2.1827462626
 H          1.1093321088       -1.6356056212       -2.4924320622
 H          5.5149611201       -1.1198771341        1.6986675864
 H          7.9543045496       -1.3327901085        1.3917718615
 H          9.0186425208       -0.4785022559       -0.6635832348
 H          7.6419904392        0.5980429580       -2.4053089906
 H          5.2049681039        0.8224263586       -2.0887908337
