80
 energy: -130.858420321950 gnorm: 0.000029579417 xtb: 6.7.1 (edcfbbe)
C           -7.74260276351874        7.14141853205384        0.83721251016098
O           -7.40010808867524        5.95252290504020        1.50511770074701
C           -6.32732765773346        5.24033254471623        1.05770086652707
C           -5.52685136549485        5.59289113281926       -0.02269586747741
C           -4.46003230089416        4.78930735853620       -0.38393967868901
C           -4.16506161220424        3.61983737697358        0.30755462325756
C           -3.03588466284791        2.76790286375671       -0.09145957974713
C           -1.82083917750001        3.34350484495581       -0.48432737270514
C           -0.73637797035260        2.58283472157272       -0.87481806621417
C           -0.87725314730785        1.20470062004372       -0.87823220902063
C           -2.08869888342455        0.60458229593342       -0.47834817486680
C           -3.16395622440013        1.38400297332116       -0.08463846669610
C           -1.90377042171088       -0.81808615789684       -0.59233584055521
C           -2.75208420948677       -1.89171112136300       -0.38170230081381
C           -2.29905213483624       -3.17926147537092       -0.64545251028210
C           -3.17348443922443       -4.33817370683854       -0.41918427980020
C           -3.99287574328629       -4.40196807196037        0.70234148636825
C           -4.81832080163411       -5.48775188497345        0.93397571970020
C           -4.84562044703697       -6.54393963145078        0.03048784986590
O           -5.61677989884391       -7.66067679281064        0.15227511510000
C           -6.46598563299040       -7.77265366812066        1.26736504154587
C           -4.03044512676276       -6.48679275980628       -1.10139785458437
C           -3.20797053314314       -5.40456345182811       -1.31831302869507
C           -1.00498361355153       -3.35772500089547       -1.14769715858092
C           -0.14231599529933       -2.29897542669861       -1.35700516529279
C           -0.58114199625430       -1.02061108600356       -1.04475468000920
N            0.04844905555983        0.21119833245686       -1.18721036728577
C            1.36860809757203        0.43465322896859       -1.52280108299979
C            2.38451107027946       -0.45226585702519       -1.13616861367261
C            3.67906416943254       -0.18246743156358       -1.52168354761107
C            3.94953398813136        0.97029429647337       -2.26475647955886
C            5.29830822294623        1.32783498522559       -2.75984011120225
O            5.44929177032844        1.93190769645737       -3.80410795626670
C            6.45301581165071        0.91417582885920       -1.92432049991688
C            7.66648779123970        0.63734877848850       -2.56816438875186
C            8.78189222917712        0.25985839243273       -1.85370549401603
C            8.68541870615685        0.17633902988145       -0.47213728482988
S            9.97149875224428       -0.27477580159737        0.61734967547174
C            8.91195820327922       -0.06680456032015        1.99687757984358
C            9.25943536737078       -0.26608235412955        3.32255493737705
C            8.29722259503249       -0.05880030659032        4.29213711043346
C            7.01015044839330        0.33985281056855        3.94379062406236
C            6.66568309143084        0.53779034914276        2.62248867105581
C            7.61820061231853        0.33690234213876        1.62755116528064
C            7.48540784957810        0.47623005595529        0.19970464447143
C            6.36918627186850        0.84563851036025       -0.53960216568493
C            2.86778425465375        1.79851403244759       -2.56696766395933
N            1.62967338913665        1.54814080823223       -2.20588508047889
C           -4.97690535340238        3.27467465233917        1.38863207858465
C           -6.03663202054907        4.07029478897077        1.76129104137890
H           -8.61437663021833        7.53270651915717        1.35946650885798
H           -8.00320290868041        6.95457896199460       -0.20983703857908
H           -6.93333900793613        7.87760805852597        0.88428750354028
H           -5.72435012183487        6.48699122013428       -0.59330418435146
H           -3.86000814076623        5.06927515929831       -1.23737006097874
H           -1.72497778518401        4.41886988356996       -0.46440795524140
H            0.18823359494553        3.04464442783534       -1.17912177394424
H           -4.09612239520466        0.92093362788768        0.20108889285840
H           -3.76500131463214       -1.72534726312812       -0.04833565693147
H           -3.97180609849690       -3.59764741075626        1.42328461138971
H           -5.43103123748062       -5.49876397897854        1.82195276968954
H           -7.20585682325102       -6.96584336634313        1.29291047375056
H           -5.90082998000831       -7.77726870854354        2.20532803406685
H           -6.97888616436832       -8.72638162145523        1.15302584135026
H           -4.06557462394536       -7.30929633834827       -1.79840032742464
H           -2.59923710915757       -5.37174004139338       -2.20962297636760
H           -0.66410011833085       -4.35842805810280       -1.36725737370653
H            0.83375745973157       -2.47976539150467       -1.77937468597318
H            2.15938703217658       -1.31021034002840       -0.52438949686409
H            4.47618696313375       -0.86400135013755       -1.26023941589885
H            7.70437666263237        0.72213824579980       -3.64350039662941
H            9.71363255286267        0.03733899228693       -2.34963917796927
H           10.25916612527738       -0.57586842539142        3.58403151703266
H            8.54768847867930       -0.20838464217926        5.33139534270163
H            6.27400300131212        0.49563607976282        4.71796348694433
H            5.66639272829334        0.84728644849501        2.35555817736306
H            5.45257860714426        1.10498099409441       -0.03095143770766
H            3.02612810408394        2.71244752307335       -3.12397246038876
H           -4.75852217469825        2.38171794934348        1.95547430006130
H           -6.66172820149461        3.81039330318840        2.60120248837329
