80
 energy: -130.779919197000 gnorm: 0.000088737198 xtb: 6.7.1 (edcfbbe)
C           -3.77914857087463        9.10508942130193       -0.90755669318415
O           -2.70892632441565        8.56014003619655       -0.17446620330620
C           -2.50893405261088        7.21686663261597       -0.21058410098623
C           -3.28275424056803        6.30966895893353       -0.92849465249974
C           -2.98491905743885        4.96083871587080       -0.88446216884605
C           -1.91133037924900        4.47491816593900       -0.14151338993923
C           -1.60228795270501        3.04341349552021       -0.11077044106999
C           -0.26724179398363        2.60839689071682       -0.09620922475701
C            0.06944811910230        1.27208391241176       -0.06827686675200
C           -0.96020415189703        0.33971254344477       -0.05523588898537
C           -2.31358135699991        0.75582874626137       -0.05852659034494
C           -2.63030433685923        2.10069452394689       -0.09259209828185
C           -3.10668955465618       -0.44469297863256       -0.03484341696138
C           -4.46913635839930       -0.67517577797975       -0.03435651313744
C           -4.94024690617439       -1.98758072041091       -0.03779267839148
C           -6.37890807206741       -2.25915591185319        0.00189217084477
C           -7.28763528471927       -1.44987297937700       -0.68570892956756
C           -8.63856811178868       -1.70218730741024       -0.63705900367123
C           -9.13640968397882       -2.77121139803362        0.11332595457697
O          -10.48618727483165       -2.92618220527175        0.10270919150804
C          -11.05143901166480       -3.98379388421723        0.83893177910794
C           -8.24146703001210       -3.58333275792486        0.80369826206333
C           -6.88494728282701       -3.32724974359901        0.73918960749787
C           -4.01987767406486       -3.04641457712720       -0.08650781784038
C           -2.65706681593037       -2.83719771312815       -0.09346956313173
C           -2.19204023016508       -1.52823926235651       -0.02915665919097
N           -0.90279050146043       -1.03832355691699       -0.01680164000790
C            0.26907744973387       -1.78046458132113        0.09915984411304
C            0.34638430054540       -2.93012344403877        0.90531252016065
C            1.54355817151260       -3.58784643707175        0.99512315504234
C            2.69093754110981       -3.09172477962936        0.32243008106071
C            3.94292197477693       -3.80024801168330        0.39923425812995
O            3.95894429298879       -5.01479628986881        0.73557343148010
C            5.19721864669218       -3.09799974392063        0.11963715896253
C            6.29310143078292       -3.85135157002212       -0.34291222678125
C            7.51218375746624       -3.26346396771066       -0.58651112387986
C            7.65585796691966       -1.90312135359907       -0.34890737333984
S            9.11385250118900       -0.96305688173591       -0.57634066612259
C            8.30632766814991        0.47828974641415        0.00328229275793
C            8.87750204957229        1.73433081898792        0.12261083079620
C            8.09633534452613        2.77033002098404        0.59858568952922
C            6.76712046477365        2.55526676407585        0.94784195584987
C            6.19974498632667        1.30214883151996        0.82859473700189
C            6.96646145613717        0.24279020068064        0.35494759579928
C            6.58887017240005       -1.13387578624882        0.15078145404975
C            5.36598355677886       -1.73954811662730        0.39270011270632
C            2.49243740001001       -1.93268177243514       -0.46498379071056
N            1.34145778882166       -1.33170310120773       -0.56201587121406
C           -1.13919396572306        5.39639060429493        0.57169857105562
C           -1.43327803771043        6.73934060855552        0.54359264219433
H           -3.66943503863535        8.91552331775888       -1.98017972619608
H           -3.74371274422045       10.17823023724105       -0.72708507808881
H           -4.74205442608248        8.71275739276800       -0.56497761154213
H           -4.11567983965305        6.64241364712269       -1.52793846965481
H           -3.58427015893237        4.27543977348144       -1.46534053610959
H            0.51967768679826        3.34623950120630       -0.13301362350852
H            1.09914719241601        0.95357101914021       -0.07396955803752
H           -3.66209162729257        2.41719156589112       -0.07785386602282
H           -5.15999318764869        0.15343675003809       -0.00634920435862
H           -6.92354770008065       -0.63014731425898       -1.28662727452747
H           -9.34151972836348       -1.08567303128868       -1.17483658507416
H          -10.70102181464697       -4.95651345361481        0.47927615934927
H          -12.12652584340539       -3.90936057880151        0.68366860228621
H          -10.83368683858676       -3.89070198143484        1.90779579998142
H           -8.58933771253044       -4.41404254388128        1.39749557925860
H           -6.20833965862220       -3.95616161345031        1.29864306289273
H           -4.39343198035591       -4.05704991215255       -0.15177766116976
H           -1.97851285139353       -3.67174912171875       -0.17447887879493
H           -0.51119663292656       -3.25082896823715        1.47561152917187
H            1.64280725930448       -4.47366653514849        1.60244066590936
H            6.15032569451046       -4.90760307735655       -0.51072624096448
H            8.34500115042315       -3.84387977383455       -0.95246012420409
H            9.90922528869066        1.89239825166038       -0.15069530834544
H            8.52353908645542        3.75668638136731        0.69977486148357
H            6.17399763330542        3.37885636903995        1.31662446456272
H            5.16778130597030        1.13837183287215        1.10064678103337
H            4.56383404268227       -1.16302217695964        0.82707544921883
H            3.28684728714114       -1.52623703582328       -1.07474545671211
H           -0.31573768267667        5.04758748711857        1.17636318777374
H           -0.84564494080049        7.45137111648041        1.10131841942076
