80
 energy: -130.859427391840 gnorm: 0.000044253260 xtb: 6.7.1 (edcfbbe)
C           -3.75387234242924        9.07068116200801       -0.72245691439174
O           -2.64488334616417        8.50923203393329       -0.06532053354411
C           -2.44515362723149        7.16418761611601       -0.15853084044912
C           -3.25507897298513        6.28169691534047       -0.86390826463764
C           -2.95240263957729        4.93181419971076       -0.88409207997090
C           -1.84319935174210        4.42568793355345       -0.21591331570338
C           -1.53221668885775        2.98970120649150       -0.24827563282591
C           -0.20546149874875        2.55930022946993       -0.37558853891394
C            0.13476349457432        1.22148643373661       -0.41615077466726
C           -0.88504192126125        0.28820037317124       -0.32594666287666
C           -2.22670497370853        0.69987889924209       -0.19017750060953
C           -2.54892401678958        2.04655768508496       -0.15432901010096
C           -3.02177386161735       -0.49763276769256       -0.11740344299155
C           -4.38644546672166       -0.71148728819246       -0.02353293941029
C           -4.87274632131228       -2.01369989816499       -0.02681701135386
C           -6.31397885383217       -2.27267875062638        0.09319729292695
C           -7.24669126729951       -1.46589197398911       -0.55963675486844
C           -8.59672327940256       -1.70675350946901       -0.44161112172863
C           -9.06373847313270       -2.76295771267412        0.34280264536373
O          -10.41727941159728       -2.91029681898792        0.39725418788490
C          -10.94858517541784       -3.95818077234789        1.16974647134083
C           -8.14362075726782       -3.57252257438942        0.99887575102923
C           -6.78871132737406       -3.32539386106380        0.86741484528788
C           -3.97407794078607       -3.07812523682203       -0.16493720434022
C           -2.60976547002702       -2.88387886722263       -0.26191343008753
C           -2.12496401386923       -1.58562308899067       -0.19913123204620
N           -0.82515237480811       -1.10247214109818       -0.29567865477702
C            0.34011914656584       -1.84245067154140       -0.27346535288913
C            0.44406015885274       -3.02958009606917        0.46694347212695
C            1.64904667077499       -3.69349147117832        0.47229534198231
C            2.73643886592871       -3.16702795966786       -0.23254807536914
C            4.03177376223710       -3.88462385454119       -0.23192687933709
O            4.08093785870281       -5.09937107387420       -0.19279132931547
C            5.25567541757331       -3.04935097284199       -0.27560172977730
C            6.42093013611977       -3.60773117907714       -0.81881196556005
C            7.59704831520961       -2.89292526201398       -0.86943389981129
C            7.61136688407986       -1.60480133745606       -0.35343057416542
S            8.98861072997339       -0.53509715906708       -0.30784535787322
C            8.03397362210403        0.70523712383806        0.48012786628547
C            8.48752534442719        1.95621919540652        0.86373355367810
C            7.59687465319792        2.81933680261927        1.47274010161291
C            6.27599612397054        2.44056121068202        1.69328746791074
C            5.82607421837429        1.19349273404279        1.31117400106085
C            6.70547352296484        0.30522502052749        0.69874848845441
C            6.46018141719821       -1.03045441799910        0.21783283791363
C            5.28263976546925       -1.76492061567358        0.25349565401017
C            2.51869327950748       -1.98908383449548       -0.94540379170314
N            1.36871851831622       -1.35106834675383       -0.96263579794424
C           -1.03595521098278        5.32128342519257        0.48635921341279
C           -1.33123347087171        6.66536586955920        0.51893443845378
H           -3.70106231033475        8.91657868651632       -1.80532536124689
H           -3.71381070334775       10.13788608961530       -0.50969957277485
H           -4.69634370410350        8.66226891122622       -0.34291823704256
H           -4.12107394765119        6.63149872079781       -1.40403245657641
H           -3.58272147267391        4.26314087087412       -1.45200023626280
H            0.57444236542656        3.30030730320301       -0.46885476225362
H            1.15982513809156        0.91059330951891       -0.53233413187383
H           -3.57534856211180        2.35699757304855       -0.03132653316373
H           -5.06193425189150        0.12556559127774        0.06417980085671
H           -6.90503340396699       -0.65450060704452       -1.18492559738531
H           -9.32033841559773       -1.08986882496295       -0.95096616758781
H          -10.61826169096256       -4.93599978399030        0.80395957238730
H          -12.02988324475523       -3.88273773677776        1.06554916905355
H          -10.68007040482218       -3.85583946686303        2.22643731382138
H           -8.46730475774911       -4.39528748755578        1.61717077176471
H           -6.08907614224806       -3.95400745813713        1.39887048955715
H           -4.36322215843168       -4.08351238943239       -0.22600920200843
H           -1.95675810827892       -3.72886352829964       -0.41512755689704
H           -0.38593107175471       -3.38329230835928        1.05569348939186
H            1.78311029721703       -4.60465222575136        1.03680109521891
H            6.37203296875870       -4.61524373365051       -1.20296862900454
H            8.49175580564956       -3.31960145622071       -1.29500096953026
H            9.51243063966124        2.24307430752198        0.68746130949331
H            7.93037499306329        3.79905918193359        1.77954612642500
H            5.59694789958678        3.13203486474578        2.16890572462336
H            4.80060815143435        0.90272766172392        1.48256260491511
H            4.40427325506243       -1.34158010738428        0.71691316556172
H            3.29928623019260       -1.54773429703863       -1.55219629344734
H           -0.17927748505260        4.95306130058493        1.03108110485294
H           -0.71363023228369        7.35942075843371        1.06715473646429
