80
 energy: -130.780815780433 gnorm: 0.000051596387 xtb: 6.7.1 (edcfbbe)
C           -9.18257926136941        6.55361490599410       -1.13201833301912
O           -8.79617920604982        5.32168811205913       -1.69134086579278
C           -7.64265856398970        4.74377077652814       -1.26481620896832
C           -6.79376238056275        5.26841331258141       -0.29482182199748
C           -5.64094505692406        4.59054907536117        0.05434554903633
C           -5.30274629767077        3.37555580931727       -0.53654205555635
C           -4.08109331168655        2.66330759349261       -0.15351693373923
C           -2.90296969243762        3.37593458263894        0.11804685867812
C           -1.73187117502290        2.74828889316725        0.48718516264328
C           -1.73856355158552        1.36337104724334        0.60609817733529
C           -2.90811349264946        0.62350467213775        0.30017661991199
C           -4.07053611504597        1.27124877681018       -0.07240783850944
C           -2.55918773032665       -0.76572363271171        0.44521389806414
C           -3.26218901078639       -1.94347968995640        0.27687756253114
C           -2.61266542725562       -3.16059041269996        0.48473174280348
C           -3.33483820930188       -4.42288067955510        0.30949024972847
C           -4.67164859449878       -4.54756512246920        0.69871243646329
C           -5.34882095831569       -5.73349593433551        0.53790213005372
C           -4.71597328226818       -6.84273770116324       -0.03042821756278
O           -5.47511328091759       -7.96317204488250       -0.14810205168999
C           -4.89470961972329       -9.11881192705988       -0.70280169940111
C           -3.38677294074095       -6.72909828779711       -0.42757856391554
C           -2.71248075301023       -5.53565021091270       -0.25184019557713
C           -1.26178885002891       -3.16623002409172        0.86824290215161
C           -0.54575119396823       -2.00272401345230        1.05191613975981
C           -1.19636696033329       -0.79634302383509        0.82773318870329
N           -0.72027475861993        0.49318759948543        0.93661318975500
C            0.55824956187151        0.83916322404374        1.35996385625937
C            0.78258964048884        1.91714437705221        2.23442512918742
C            2.06794056315533        2.20326110382699        2.60572811889393
C            3.15315462514999        1.44232912133337        2.09334996595776
C            4.50819913129516        1.75744114204496        2.46715045162241
O            4.70923164042969        2.47291591129006        3.48542800924974
C            5.63229370938911        1.23391652229061        1.69096689637699
C            6.86273840652561        1.05062973610732        2.35056668488724
C            7.97485644232663        0.60166254034679        1.67811899040174
C            7.87040119381990        0.34079335569681        0.31846579365959
S            9.15517965238275       -0.22798544909933       -0.72411742770697
C            8.08395118909809       -0.18962112545255       -2.10824673609316
C            8.42410187171077       -0.53764836066635       -3.40490937325465
C            7.45378095488075       -0.45242954980759       -4.38523663770374
C            6.16568101496309       -0.02861807085243       -4.07466108038912
C            5.82861822073015        0.31795214249327       -2.78132292165909
C            6.78876290792499        0.24374158421720       -1.77771562442404
C            6.66345468031867        0.54936713069013       -0.37387485606896
C            5.55064079248705        1.00407713156467        0.31663170086119
C            2.79649974852129        0.31506713754908        1.31285180646722
N            1.57011275292250        0.05829566421179        0.96184960519484
C           -6.16599920968934        2.85609433284683       -1.50518437460529
C           -7.31039545868714        3.52722865228049       -1.86724397173926
H           -9.35272148241471        6.46994276878981       -0.05378053815650
H          -10.11695818960156        6.82012476330412       -1.62333207561227
H           -8.43842594231296        7.33327163444145       -1.32383094117200
H           -7.02152616839915        6.20103268695985        0.19719006548126
H           -5.00541267757022        5.00445713237226        0.82322157852604
H           -2.90625133998431        4.44917945035009        0.00255728933507
H           -0.83331593045271        3.32194291067945        0.65229487499316
H           -4.96502711363855        0.70481702836226       -0.28132299616591
H           -4.29412256298718       -1.92194030710000       -0.03854880390512
H           -5.17365109030677       -3.70956519478313        1.15853624064569
H           -6.37688553568273       -5.83603864988361        0.84771039012109
H           -4.57142358290452       -8.95043470993583       -1.73508852161878
H           -5.67675207068653       -9.87626432359489       -0.69042174394503
H           -4.04483128192663       -9.46719946455257       -0.10725453332239
H           -2.86847406779803       -7.56144718329051       -0.87734707459625
H           -1.68789894133400       -5.46143129627028       -0.58478527669807
H           -0.77872086513715       -4.11334978487069        1.05441815951136
H            0.48859255477212       -2.02127262872121        1.35534873785094
H           -0.05392810124410        2.46428469161612        2.64059864752824
H            2.27810917283539        3.01195806688036        3.28726972730193
H            6.91067258476293        1.26890350047612        3.40624812853241
H            8.91313596063256        0.45603618767069        2.19077784452001
H            9.42534334459180       -0.86649552526098       -3.63639056373590
H            7.69923683671680       -0.71855562851684       -5.40238966102431
H            5.42188268777942        0.02920969766158       -4.85535100075597
H            4.82755592259215        0.64509828927063       -2.54363283595254
H            4.63953523995250        1.21478994889007       -0.22211072837389
H            3.54038261553731       -0.39587548194209        0.98265378973296
H           -5.91819430237841        1.92825461631037       -1.99846955402523
H           -7.97257026377000        3.13438399087903       -2.62261889147391
