  80
       -130.77636991
 C         -9.0722405644        6.6036223993       -1.2247444153
 O         -8.7053467982        5.3495176421       -1.7471681714
 C         -7.5666402520        4.7616813326       -1.2964016649
 C         -6.7215517020        5.2899417664       -0.3247686530
 C         -5.5835362854        4.6013499124        0.0497958919
 C         -5.2550655278        3.3717192387       -0.5172759236
 C         -4.0459637973        2.6521899631       -0.1126404771
 C         -2.8659741957        3.3584777210        0.1728531640
 C         -1.7045209666        2.7241095204        0.5592111010
 C         -1.7213139556        1.3394651711        0.6813224475
 C         -2.8921822421        0.6050107263        0.3612658349
 C         -4.0451658540        1.2597072588       -0.0272455616
 C         -2.5514249831       -0.7855204611        0.5089405050
 C         -3.2537763970       -1.9608494592        0.3240709516
 C         -2.6102633976       -3.1814333571        0.5352529053
 C         -3.3288583541       -4.4405309562        0.3336223307
 C         -4.6798699314       -4.5645161941        0.6727088179
 C         -5.3532879760       -5.7477190718        0.4808122001
 C         -4.7026508588       -6.8561386651       -0.0694662459
 O         -5.4596440822       -7.9730170090       -0.2232034709
 C         -4.8629052262       -9.1259984597       -0.7662219063
 C         -3.3586327871       -6.7443197671       -0.4147628439
 C         -2.6888176738       -5.5536612047       -0.2086876500
 C         -1.2653501505       -3.1920355479        0.9429260635
 C         -0.5495785021       -2.0312607435        1.1416389272
 C         -1.1925879022       -0.8221006172        0.9097139319
 N         -0.7115302601        0.4644895643        1.0238562989
 C          0.5671040643        0.8037106344        1.4454864051
 C          0.7999731935        1.8871246479        2.3142281864
 C          2.0872031038        2.1697668083        2.6780139843
 C          3.1675354253        1.4056643315        2.1593062175
 C          4.5292035195        1.7291263878        2.5119269033
 O          4.7529408977        2.4360358247        3.5226348716
 C          5.6313999780        1.2151461115        1.6944026230
 C          6.8851221451        1.0333158732        2.3087406227
 C          7.9774200308        0.6024607595        1.5931060962
 C          7.8283928472        0.3591508581        0.2339333146
 S          9.0814374861       -0.1817734555       -0.8613667303
 C          7.9630796559       -0.1331102967       -2.2075998471
 C          8.2618354143       -0.4570751480       -3.5205897448
 C          7.2573869512       -0.3660528372       -4.4657791741
 C          5.9768505190        0.0392589444       -4.1042970694
 C          5.6811988144        0.3620939808       -2.7943776780
 C          6.6759791426        0.2820881277       -1.8259327282
 C          6.5962057576        0.5658573779       -0.4139844369
 C          5.5044821964        1.0001725162        0.3205007276
 C          2.8025871592        0.2705927870        1.3940063765
 N          1.5749478074        0.0113707278        1.0522295747
 C         -6.1155139695        2.8485331631       -1.4871535572
 C         -7.2456696892        3.5296538249       -1.8735035097
 H         -9.2515237912        6.5535862234       -0.1458693651
 H         -9.9977563133        6.8740031232       -1.7302260863
 H         -8.3114995771        7.3630611813       -1.4324490373
 H         -6.9412819015        6.2340380656        0.1485396433
 H         -4.9518590132        5.0188405546        0.8197834875
 H         -2.8595876934        4.4309318800        0.0516388810
 H         -0.8040208408        3.2919283910        0.7333887586
 H         -4.9409853640        0.6985448829       -0.2448897889
 H         -4.2797809891       -1.9351129974       -0.0098254045
 H         -5.1971896159       -3.7281268279        1.1181522956
 H         -6.3924593019       -5.8490380264        0.7514782970
 H         -4.4963771517       -8.9482567583       -1.7822416577
 H         -5.6487850198       -9.8790182262       -0.7946731278
 H         -4.0404383958       -9.4855544732       -0.1398488031
 H         -2.8254844061       -7.5762048581       -0.8476123349
 H         -1.6525646647       -5.4812595155       -0.5032100048
 H         -0.7880446354       -4.1407312950        1.1353484730
 H          0.4795903513       -2.0531400503        1.4619512877
 H         -0.0342352348        2.4357150577        2.7233969011
 H          2.3067755741        2.9792759035        3.3559017670
 H          6.9664990610        1.2407759507        3.3646093649
 H          8.9342075906        0.4584454511        2.0708908338
 H          9.2575682043       -0.7717593859       -3.7917738764
 H          7.4702914343       -0.6133833296       -5.4950171260
 H          5.2057058617        0.1017181113       -4.8578196703
 H          4.6857455035        0.6750003219       -2.5172018458
 H          4.5726334566        1.2075929461       -0.1831205447
 H          3.5444480701       -0.4436340784        1.0651072592
 H         -5.8758940869        1.9093512319       -1.9624108399
 H         -7.9052596444        3.1333874606       -2.6293208503
