94
 energy: -127.849661931058 gnorm: 0.000044838587 xtb: 6.7.1 (edcfbbe)
C           -3.18673512887282       -4.94572503922069       -3.21662530051539
C           -2.99839079839850       -3.74045322845508       -2.34566125204187
C           -1.72449797927348       -3.30035081781035       -2.00662067277945
C           -1.54367987920257       -2.17726224433916       -1.22756676597493
C           -2.63309418270898       -1.44880899851048       -0.75844204059051
N           -2.40681506228860       -0.30402056490704        0.02184852790647
C           -3.43826395114982        0.63524385549524        0.14435412118854
C           -4.11220685808393        1.07398922410965       -0.99961003978652
C           -5.10285661245495        2.02818835870445       -0.90781018348401
C           -5.45724802511914        2.58446014449344        0.31718223237644
C           -6.52008612831619        3.63813583854308        0.39781326664914
C           -4.78657748930735        2.14709482089639        1.45026019363050
C           -3.79652571976043        1.18565255747425        1.37416366956420
C           -1.51620730842841       -0.43834228097370        1.13131362517689
C           -1.80814704128312       -1.47274161392957        2.01888442613116
C           -1.13355016108927       -1.61795630401762        3.21206979429211
C           -0.16412339445935       -0.69035674665301        3.54024049497520
C            0.17049174307058        0.30242146677043        2.63899148366325
C           -0.44895140672609        0.43751207417523        1.39894412850987
C            0.02963540577275        1.50228457624903        0.40499758021360
C            0.26951079014421        0.78748841003325       -0.93019655746148
C           -0.63503180875051        0.91038961591219       -1.98197036446153
C           -0.47940483837095        0.25683834838725       -3.19016502900251
C            0.61678954161900       -0.55768961880342       -3.39815695934893
C            1.54866707040827       -0.67446424142820       -2.38928535463307
C            1.40028218620261       -0.01587185474665       -1.16822929361254
N            2.49957530140024       -0.15036672324909       -0.27031760467322
C            2.42556482965052       -0.99573892244424        0.84214523937852
C            3.15976531612276       -0.71090877037402        1.99465063311308
C            3.09371606653398       -1.54460626678919        3.09245376754919
C            2.29028352984832       -2.67718039840285        3.08851022035048
C            2.21583330424442       -3.58537775784584        4.27820979331114
C            1.56229368838116       -2.95831057514902        1.93947184323321
C            1.63268393069471       -2.13957901813971        0.83145095223286
C            3.73962418637596        0.26886782604680       -0.75919831441263
C            3.81309474773318        1.34234384594167       -1.65102594694363
C            5.02976978883937        1.77622477892120       -2.13372165075633
C            6.21845999747406        1.16375231851489       -1.75420153791009
C            7.53162096814413        1.65058274926365       -2.28855343278656
C            6.14184929325569        0.08312313655267       -0.88704186020810
C            4.92916830856682       -0.36549445928445       -0.40141178940112
C           -1.04338318988565        2.61507640630078        0.35104701296463
C           -0.48770344216835        3.91794991249708       -0.21384397461275
C            0.48268392452687        4.55522215678217        0.78621263609531
C            1.13711208568836        3.46859833630372        1.64316703316386
C            1.35067530621832        2.20637503393002        0.81184419408589
C           -3.91318551717502       -1.90074513467570       -1.07554875399902
C           -4.08451865158221       -3.02307072824102       -1.86254499523357
H           -2.48610322396181       -5.73246746231158       -2.94339984151546
H           -3.00670842577531       -4.68661078125828       -4.26070531642097
H           -4.19985725677239       -5.33171950183686       -3.13262826190122
H           -0.85995888056585       -3.84264863048409       -2.36293329035992
H           -0.55345407020607       -1.83936305593944       -0.97821355728375
H           -3.84730615053477        0.65768832141315       -1.96065491435515
H           -5.60939488115739        2.35370932850962       -1.80554757155634
H           -6.12220365445059        4.59987634135785        0.07148828546596
H           -6.88078826736787        3.74833252817608        1.41762348739603
H           -7.36026930191883        3.38922178556604       -0.24774392461507
H           -5.04711767944236        2.55782847060724        2.41560718964312
H           -3.29600342288964        0.85892404595194        2.27346980686409
H           -2.61085094930714       -2.15046994246851        1.76238366215441
H           -1.38810118225358       -2.42003265588693        3.88846999621027
H            0.34435629824900       -0.74095195548747        4.49092314606330
H            0.94221385024307        0.99329763933108        2.93154173894994
H           -1.49465408033451        1.54878377542466       -1.87886583985007
H           -1.21717635725223        0.38981178298635       -3.96729725309865
H            0.75000487877710       -1.08528389443786       -4.33029345132568
H            2.43195479070382       -1.28171320071415       -2.53223761223715
H            3.79285513102005        0.16473845961605        2.02263660857102
H            3.67364865735129       -1.30402159412381        3.97261888099900
H            2.72301656683748       -4.52746303823039        4.06826253784559
H            2.68670981172100       -3.13012491459314        5.14613654343296
H            1.17899915813330       -3.81316953271681        4.51925412830160
H            0.93799737732991       -3.83969266208086        1.90577911117597
H            1.08559584305317       -2.40125594980126       -0.05966292062633
H            2.90737756875558        1.83040712581012       -1.97951675110432
H            5.05833255290321        2.61121060796337       -2.81969667988099
H            7.58853079962856        1.48500013885759       -3.36455119133169
H            8.36048431719669        1.12931597089283       -1.81608642190871
H            7.64465694411400        2.71935196767448       -2.11111626651052
H            7.04651670032338       -0.42953992679811       -0.59128044226688
H            4.90416758567861       -1.22551905006559        0.25096072860602
H           -1.91214425889479        2.30915266874613       -0.21929876315650
H           -1.39732909406227        2.79535691645980        1.36837880365071
H            0.01788203694567        3.71067972579417       -1.15893794528088
H           -1.30986476109224        4.60355418040391       -0.42747831646339
H            1.24850953192351        5.11799095991008        0.24915210938034
H           -0.04880526995535        5.25831714887586        1.43029146388417
H            2.10154720569059        3.82112536034573        2.01540575849062
H            0.51441037521983        3.24809329733415        2.51138284081036
H            1.86893045868517        2.50687391866270       -0.09968744665143
H            2.01067227011832        1.52709191392793        1.34084902808155
H           -4.77966733993823       -1.37874194583755       -0.69655300272445
H           -5.08737255069107       -3.35370782316293       -2.09459485264926
