94
 energy: -127.844832345052 gnorm: 0.000049097031 xtb: 6.7.1 (edcfbbe)
C           -3.61097579170573        5.17174615978847        2.35469167128850
C           -3.30037579066053        3.88121842019842        1.65832256138615
C           -4.29219510673949        3.19385322692601        0.96769250260929
C           -4.01996634840726        2.01313724782492        0.30773165029288
C           -2.73585415645843        1.46709168768358        0.33085661646550
N           -2.42610483308945        0.25807640482843       -0.32210880632975
C           -3.48268334515115       -0.62113348490815       -0.59708875486139
C           -3.64905404544577       -1.21921351215370       -1.84352729513704
C           -4.67635494112740       -2.12064053258106       -2.05664553505105
C           -5.56799520913603       -2.44969169423527       -1.04726214704797
C           -6.68806321127894       -3.41940982700224       -1.27473638872038
C           -5.39912137014484       -1.84926290697400        0.19723842499467
C           -4.37559818958248       -0.95583268714526        0.42507886155358
C           -1.34681721547043        0.30499750006543       -1.26052801945079
C           -1.45203721767966        1.28187137496714       -2.25048131574626
C           -0.51304350006447        1.40810019506824       -3.25264605345454
C            0.54658163978332        0.52264738644085       -3.27991975866428
C            0.66765966625376       -0.43849585490282       -2.29344315460644
C           -0.24443489648626       -0.56906692481546       -1.24930120545182
C            0.00563417986531       -1.58613117484703       -0.12737942539316
C            0.29709843419541       -0.73133376390463        1.11108755965404
C           -0.56280762396926       -0.75192757458765        2.20738897948381
C           -0.39613678576370        0.06096130004077        3.31309374771554
C            0.65052663405122        0.96179230523786        3.35354623169540
C            1.52274342628209        1.00469850553375        2.28603239961439
C            1.37635484522747        0.17050686996660        1.17736009042422
N            2.38923300459436        0.30365821049860        0.17352828865755
C            2.59091432592631        1.58921985018230       -0.35421329573535
C            1.49459360097184        2.37017648919985       -0.71097344736175
C            1.66471015918930        3.63099352554708       -1.24503557053134
C            2.93091379277064        4.16367867116092       -1.44416570990072
C            3.11877764500410        5.52036803337135       -2.05327044102728
C            4.02393636614669        3.39175887927920       -1.07085469061839
C            3.86453638124007        2.13289309524638       -0.52738111670447
C            3.49965302350437       -0.55194236285929        0.26423612655009
C            3.85942938738923       -1.17892872930815        1.45397209725483
C            4.94405813081191       -2.03805928339658        1.49343150038888
C            5.70143674818174       -2.29410082557752        0.36144332773972
C            6.87622752641779       -3.22378344200993        0.39744575164541
C            5.34337782468585       -1.65968352642312       -0.82545332509279
C            4.26381514328356       -0.80605353482212       -0.87960927659493
C           -1.22884656631970       -2.51806519522311       -0.04011860504183
C           -0.94664997308747       -3.92314847154354        0.51248641725342
C            0.21344746156544       -3.92022925027751        1.49591264355204
C            1.48110265288642       -3.45037258395762        0.78060476931957
C            1.17745503090260       -2.54153236095793       -0.41503608482975
C           -1.74020422711831        2.15844317584772        1.01368069637329
C           -2.02076719767589        3.34484029288931        1.66259678775881
H           -4.52601064254250        5.08399750086198        2.93797457489575
H           -3.75688793540764        5.96878816071298        1.62489843469683
H           -2.79841761702332        5.45996563287951        3.01698043827803
H           -5.29460978380946        3.59755973486429        0.93583419703560
H           -4.80742891393140        1.51254415196855       -0.23695933526513
H           -2.97344773963231       -0.97605832941452       -2.65068672518080
H           -4.78602418157676       -2.57001936594107       -3.03372132484222
H           -6.64349379256493       -4.23119289910507       -0.54959955370621
H           -6.63816479495747       -3.84317083877782       -2.27459331147846
H           -7.65098360240728       -2.92239147157077       -1.15750147352548
H           -6.07881373184626       -2.09481532454324        1.00110253727900
H           -4.25200881867323       -0.50555384852856        1.39970382793846
H           -2.30487528800280        1.94623505294819       -2.21896181769290
H           -0.61685148434387        2.17488796059417       -4.00518346481126
H            1.28758109054484        0.58100178336776       -4.06308521181716
H            1.51198667896519       -1.10333888407545       -2.34934326437369
H           -1.40795652001221       -1.41909709526303        2.21290531649155
H           -1.09433689864302       -0.00395446097579        4.13419088893461
H            0.79060954035081        1.61550873551024        4.20109258782656
H            2.35438340157381        1.69640724143578        2.29227934674301
H            0.50041239097165        1.98404021645612       -0.57488893621321
H            0.79027455941901        4.20703279131136       -1.51262214959283
H            3.29453472589315        5.42929281745281       -3.12606645902279
H            2.23429348562126        6.13600625565645       -1.90732257286781
H            3.97738327285073        6.02601587994624       -1.61600629049977
H            5.02232095973796        3.78802367835126       -1.19426599993584
H            4.73791280118725        1.57464147683446       -0.22397166347203
H            3.29777847015949       -0.98241771880864        2.35575850759430
H            5.20538101017204       -2.51086924818134        2.42973228580713
H            7.03262495208489       -3.61390606327124        1.39995136923820
H            7.78148149624904       -2.70735471955509        0.07980885890484
H            6.71763457718608       -4.06229215467432       -0.28021945714297
H            5.92033855954689       -1.84474087911633       -1.72050306954657
H            3.99478585284953       -0.32319119607787       -1.80807067226158
H           -2.02199743717234       -2.06054185227609        0.53968996004798
H           -1.61576703294350       -2.63024250042977       -1.05556447531301
H           -1.85090738183807       -4.30308675902806        0.99246575415564
H           -0.70577473831868       -4.60666735426140       -0.30444992317861
H           -0.01431227657042       -3.25563990918632        2.32925749213945
H            0.36065858488003       -4.92131177213335        1.90604934535314
H            2.12325548866442       -2.92043088362751        1.48493642393513
H            2.04695838495213       -4.30996782662215        0.41437665905010
H            2.09120121922594       -2.01107583416394       -0.65782631248045
H            0.90448626432703       -3.15097562861843       -1.27924782577830
H           -0.74248181976871        1.75831565594911        1.04744757181061
H           -1.22485282399357        3.85534978767508        2.18594463157238
