  94
       -127.84964220
 C         -3.1873094969       -4.9423881377       -3.2261146896
 C         -2.9999201019       -3.7356460258       -2.3569092084
 C         -1.7250562859       -3.2959680044       -2.0198836148
 C         -1.5423945924       -2.1747751670       -1.2388868917
 C         -2.6308651887       -1.4472413022       -0.7657516812
 N         -2.4031891959       -0.3035399001        0.0159351192
 C         -3.4364114589        0.6335625060        0.1434254487
 C         -4.1115418110        1.0764982223       -0.9980308370
 C         -5.1056307926        2.0268732980       -0.9010431612
 C         -5.4624605363        2.5744565663        0.3269551077
 C         -6.5288767395        3.6237998508        0.4161545294
 C         -4.7895155842        2.1337768363        1.4576045375
 C         -3.7957871470        1.1768302618        1.3761831797
 C         -1.5142132267       -0.4397411444        1.1265960936
 C         -1.8086536994       -1.4737967196        2.0137160538
 C         -1.1391272323       -1.6167078492        3.2100352137
 C         -0.1720437902       -0.6876586706        3.5411485518
 C          0.1660274005        0.3039551900        2.6399430375
 C         -0.4486249162        0.4370453048        1.3972780258
 C          0.0319516755        1.5020084631        0.4045367460
 C          0.2720310141        0.7888232268       -0.9314289781
 C         -0.6327351535        0.9126609656       -1.9829384509
 C         -0.4777886355        0.2596326188       -3.1914973608
 C          0.6183237658       -0.5548326650       -3.4004115246
 C          1.5506845235       -0.6721066497       -2.3920601074
 C          1.4027296654       -0.0143617106       -1.1704220388
 N          2.5019903195       -0.1501872844       -0.2728576704
 C          2.4254712515       -0.9919499166        0.8420490126
 C          3.1603568623       -0.7060414457        1.9940918027
 C          3.0898139034       -1.5352863292        3.0946995749
 C          2.2813628361       -2.6646755171        3.0943530226
 C          2.2074071510       -3.5682073422        4.2876390110
 C          1.5538076648       -2.9473861380        1.9457201791
 C          1.6282764875       -2.1326377505        0.8347881053
 C          3.7427297610        0.2670844169       -0.7613373853
 C          3.8183584778        1.3394154162       -1.6542672695
 C          5.0360470051        1.7706967102       -2.1370934020
 C          6.2235121970        1.1571344439       -1.7559237603
 C          7.5380089124        1.6373980158       -2.2930842275
 C          6.1447758873        0.0778678960       -0.8869984378
 C          4.9312137286       -0.3684181894       -0.4017043310
 C         -1.0402333087        2.6156606493        0.3513289698
 C         -0.4833490191        3.9180819878       -0.2135481494
 C          0.4884174889        4.5545243341        0.7857735152
 C          1.1399703656        3.4672678308        1.6438931937
 C          1.3532622432        2.2046404284        0.8130899519
 C         -3.9114167584       -1.8984612637       -1.0811096052
 C         -4.0846863909       -3.0194175106       -1.8699661025
 H         -2.5544753367       -5.7615645848       -2.8888148143
 H         -2.9118167071       -4.7116576661       -4.2555951278
 H         -4.2232287383       -5.2723048466       -3.2157388668
 H         -0.8616629592       -3.8378355338       -2.3794876389
 H         -0.5517942068       -1.8383912833       -0.9904255292
 H         -3.8454847526        0.6660457966       -1.9612849986
 H         -5.6133409298        2.3551308193       -1.7971434721
 H         -6.1182840353        4.6003641163        0.1559255496
 H         -6.9305240818        3.6836817264        1.4249351360
 H         -7.3417374491        3.4088830497       -0.2746477982
 H         -5.0520532235        2.5379492878        2.4251785064
 H         -3.2943928365        0.8469774212        2.2737895939
 H         -2.6103263166       -2.1519209983        1.7549213774
 H         -1.3957164085       -2.4178379372        3.8867496801
 H          0.3323528206       -0.7368901567        4.4941085668
 H          0.9368986672        0.9950909979        2.9343048013
 H         -1.4923302684        1.5509498345       -1.8790680278
 H         -1.2161250080        0.3926711108       -3.9680735134
 H          0.7508352887       -1.0822748797       -4.3327398710
 H          2.4337718227       -1.2794858939       -2.5356566885
 H          3.7964443726        0.1675059380        2.0196669679
 H          3.6688046296       -1.2935024680        3.9751310582
 H          2.8115771353       -4.4612788374        4.1234905054
 H          2.5784166157       -3.0673775187        5.1786296413
 H          1.1819153138       -3.8874658172        4.4630239123
 H          0.9253950236       -3.8259196858        1.9143021949
 H          1.0798960275       -2.3947468325       -0.0554366168
 H          2.9135524645        1.8286983026       -1.9835736945
 H          5.0660779649        2.6045859979       -2.8243519161
 H          7.6203443608        1.4057862270       -3.3554102240
 H          8.3666593204        1.1622450793       -1.7738561634
 H          7.6272940270        2.7169577357       -2.1809972406
 H          7.0487195563       -0.4350480975       -0.5893963140
 H          4.9045689729       -1.2269515393        0.2525295690
 H         -1.9094712250        2.3103342343       -0.2187133653
 H         -1.3938349035        2.7958414275        1.3688138785
 H          0.0214634454        3.7103425308       -1.1589769148
 H         -1.3047962421        4.6047125532       -0.4265696337
 H          1.2557654945        5.1146429340        0.2480745506
 H         -0.0412799125        5.2597152285        1.4290513246
 H          2.1042617905        3.8187362886        2.0174843245
 H          0.5156995049        3.2479018649        2.5112897650
 H          1.8738040372        2.5041234324       -0.0975392876
 H          2.0109806982        1.5245500616        1.3438332077
 H         -4.7771568227       -1.3773872473       -0.6990891963
 H         -5.0882225820       -3.3492121711       -2.1001826207
