126
 energy: -186.624559175082 gnorm: 0.000098941370 xtb: 6.7.1 (edcfbbe)
C            7.20716159418420       -8.35630311718324       -3.24363567308801
C            6.24000049124448       -7.67806898483262       -2.32053771273886
C            5.68366500068143       -6.44797596348096       -2.69175370433354
C            4.78966682620702       -5.77229702659701       -1.88616413249210
C            4.45277474704427       -6.34792525003547       -0.66758920047428
C            4.98022180347796       -7.60352865949871       -0.28486230895050
C            5.87747627049039       -8.25995471228179       -1.11445568216351
C            4.38197764725040       -7.92259135297326        0.98465045821270
C            4.49425342582466       -8.99566114782647        1.85648152370791
C            3.75819025806991       -8.99657288698823        3.03256809983111
C            3.85326446532295      -10.13755803935671        4.00047689089831
C            2.91891203916871       -7.91487660100473        3.32675629050917
C            2.78983040043662       -6.83279301347693        2.47993715472715
C            3.52192611638486       -6.84446343013195        1.29967921129354
N            3.58802293521680       -5.89813162612573        0.30306615383091
C            2.86914313553309       -4.68668783531273        0.27557962661640
C            1.47664710255164       -4.72790215343778        0.19141566430250
C            0.74467274103707       -3.56528825035768        0.14883986865573
C            1.39438412537698       -2.32433038331249        0.18690517398680
C            0.63936950245914       -1.09327021751863        0.12095879260206
N            1.30644831296398        0.06626641241559        0.12268442497039
C            0.57879393001085        1.18706008774416        0.02762438683874
C            1.26504987317421        2.45769565430880        0.01637257040836
C            0.54706374089804        3.65906308595242       -0.06162741224175
C            1.21405206405368        4.86054752720873       -0.07650160271378
C            2.60777960787471        4.89931359640231       -0.01423485719144
N            3.25805620968086        6.14942359826448       -0.03852921363224
C            4.06866388372589        6.62098558090589       -1.04441825879403
C            4.40547488594291        6.03167232218221       -2.25646118756182
C            5.23831692471412        6.73384278893041       -3.10380164008629
C            5.73255260287067        8.00353249026572       -2.78062181977883
C            6.63367439410445        8.70999703189745       -3.74833841293844
C            5.37102222052436        8.59638242564771       -1.57948978022958
C            4.53502029235929        7.91361418549143       -0.70831919020390
C            3.95620410903726        8.23143924287987        0.57050944772455
C            4.03438906973745        9.32996415498412        1.41385926647248
C            3.33619782146057        9.31837801976800        2.61282037723457
C            3.39668784816848       10.48557482868453        3.55174350551080
C            2.56724265741558        8.19990054793242        2.95727790732890
C            2.47245644669202        7.09260622177021        2.13906863352875
C            3.16759983616226        7.11548778910651        0.93679274349284
C            3.34783610548117        3.71154731400808        0.09173684677228
C            4.84086969540957        3.74545332460575        0.22691094096404
C            2.66283241561700        2.51298847753385        0.09786545789019
N           -0.75733304552692        1.18091211151502       -0.05748803352106
C           -1.36561599835726       -0.00993885849502       -0.02411205360148
C           -2.80852627279561       -0.05067762986864       -0.08790039795788
C           -3.55379140402371        1.12875203116181       -0.22072451857897
C           -4.92542139307386        1.07293549743398       -0.28762938201918
C           -5.59011921354367       -0.15242137654189       -0.21940439657913
N           -6.99700481272459       -0.17002401521494       -0.29308712408903
C           -7.85008093025691        0.39028544303789        0.62981552550008
C           -7.55589748511814        1.05011791111124        1.81607883769285
C           -8.61335801996946        1.50291264391194        2.57869035304587
C           -9.94625750153151        1.30896496690290        2.19571725465461
C          -11.04635115506441        1.83140114557954        3.07005919266115
C          -10.23180628033450        0.64033205975996        1.01400890671152
C           -9.18882816240911        0.17793611728734        0.22509643248740
C           -9.12423697073688       -0.53448391715024       -1.02370203498962
C          -10.08180719236346       -1.00193324906500       -1.91171688705883
C           -9.67704107832077       -1.64168407348556       -3.07427902942685
C          -10.68181524056357       -2.15978054184335       -4.05893194306084
C           -8.31112804884383       -1.79305575545753       -3.34276414682466
C           -7.33693186074404       -1.33701359656795       -2.47812441572939
C           -7.75012153719294       -0.72011499064648       -1.30405963131869
C           -4.86769683079468       -1.34443595248746       -0.05510702200695
C           -5.57420273049646       -2.65838875721403        0.09618626436086
C           -3.48993495249015       -1.27165460512414       -0.00185117888073
N           -0.69589961358850       -1.16681854625179        0.06027107192267
C            2.79066650576541       -2.29826794071773        0.29392153626696
C            3.54048114492189       -3.45653300063678        0.34879769577436
C            5.02985567192843       -3.39973320030561        0.51322586622176
H            7.60775949210740       -9.26053054420620       -2.79285186629045
H            8.03384267262818       -7.68935611064347       -3.48543176271444
H            6.71376426970829       -8.62366575351162       -4.17818913022460
H            5.96285055567547       -6.01932305250934       -3.64366367260732
H            4.35422441486009       -4.83423070277657       -2.19718806403176
H            6.28522356961031       -9.21718945612028       -0.82490410942408
H            5.14931174487831       -9.82126394312525        1.62060991541124
H            2.86617081176182      -10.55678322494277        4.19220649028456
H            4.49753781997184      -10.92356267239722        3.61519528877155
H            4.25672292328735       -9.79296517067789        4.95255937762671
H            2.35679343946377       -7.93121430736843        4.24947879679565
H            2.14221143581864       -6.00351424304478        2.72286535389593
H            0.98435718813113       -5.68914346375661        0.14856724722101
H           -0.33139908354160       -3.58526719241410        0.07573636862613
H           -0.52964309730780        3.61783953207179       -0.11454172562435
H            0.66856772899117        5.79103964790660       -0.14593914177136
H            4.01624265923547        5.06201333615501       -2.52952696878783
H            5.51651407667358        6.29540841313487       -4.05155520192500
H            6.98006904260225        9.65589122256734       -3.34013072461152
H            7.49962780804659        8.09186650952718       -3.98270112116254
H            6.10604646321026        8.90707852927632       -4.68155211115453
H            5.73167023253270        9.58237779445384       -1.32618255873740
H            4.63465349924154       10.18468766019725        1.13904712856189
H            2.39688530674436       10.87897014640522        3.73308918903618
H            4.01584492042082       11.28137235890348        3.14594146922560
H            3.80996361508698       10.17774470260311        4.51200812741569
H            2.03347514218351        8.20744338278925        3.89679534218834
H            1.87912997763175        6.23530881358096        2.42034136214805
H            5.20533688120864        2.79396204333944        0.60520300561590
H            5.14711850870558        4.53807430515026        0.90807712542506
H            5.31391637069903        3.93542387380008       -0.73625809548599
H            3.20058646110924        1.58036225191588        0.17932899535013
H           -3.03008204509209        2.07020645914576       -0.27718140916124
H           -5.50689991409603        1.97672472830735       -0.40257422612404
H           -6.53288735971513        1.20046134376578        2.12793338581420
H           -8.41040179149942        2.02229432196728        3.50429224398457
H          -12.02029900846239        1.53014175456550        2.69328229011473
H          -11.01167738162377        2.92016995675748        3.11005408470783
H          -10.93358951270944        1.45959914794943        4.08771823466488
H          -11.25566482262190        0.47931206092042        0.71041371140740
H          -11.13194093550011       -0.86310367298535       -1.70115127808134
H          -11.69602745803437       -1.99431456102161       -3.70496991898828
H          -10.53858280331112       -3.22745393219953       -4.22222206645500
H          -10.56263887912438       -1.65949197845775       -5.01982955503488
H           -8.01443034803953       -2.27822472329075       -4.26167428057596
H           -6.28763288982157       -1.44172808741331       -2.71123555789432
H           -5.92348851737039       -3.02659394143617       -0.86804341469125
H           -4.90170646035470       -3.39873924953810        0.52151505526562
H           -6.44260351969300       -2.55465472266978        0.74522634457266
H           -2.90313695167218       -2.16910761510818        0.12522997113549
H            3.27525434654669       -1.33489803563326        0.34638299060079
H            5.32840673991193       -2.42510234602712        0.89050398906162
H            5.53271724308492       -3.56666109859983       -0.43901763253519
H            5.37000154314539       -4.16738991471695        1.20656901361103
