126
 energy: -186.699787823608 gnorm: 0.000052900514 xtb: 6.7.1 (edcfbbe)
C           11.07167827416073        0.56661913014461        3.02709747393228
C            9.88161313487329        0.81842583001258        2.14802777160458
C            8.62419362944824        0.34797375246008        2.54388675512279
C            7.49076287943574        0.54444338299005        1.78053054926307
C            7.62915424148418        1.22363739885462        0.57847628277233
C            8.88190777134470        1.73648764851678        0.17477635019078
C           10.00595012965397        1.52267171865842        0.96307510929676
C            8.65554909665675        2.44106853165502       -1.05702174248997
C            9.48332308240611        3.13693000976669       -1.92972239908975
C            8.94190633473679        3.71515855343500       -3.06459468003772
C            9.80257911791565        4.47443918116504       -4.03175373411234
C            7.57185760927967        3.58487241524954       -3.32136285511127
C            6.72643891179258        2.89622300971719       -2.47473323334545
C            7.27481433731227        2.33007410832612       -1.33321164550462
N            6.66922959676463        1.57471164739887       -0.34867105203002
C            5.30594157219922        1.24280124797661       -0.29847416827991
C            4.36500844494082        2.26635063225843       -0.20281600449495
C            3.01910719918270        1.97724048973153       -0.14248725441819
C            2.59445209276985        0.64957920362090       -0.17711096099913
C            1.17138345319322        0.32559896710288       -0.10093575332585
N            0.82206524489492       -0.95878520447614       -0.10408826644173
C           -0.48326201511407       -1.20766356708321       -0.02606191212887
C           -0.91724200010589       -2.60294816997413       -0.02711527210716
C           -2.26903401447507       -2.92160458344976        0.09896131225899
C           -2.66174517211239       -4.24192414582701        0.10685758924729
C           -1.72052507317929       -5.26330487620593       -0.01371330928807
N           -2.16077340626378       -6.59567289014575        0.00772316493484
C           -1.82241478229904       -7.55378366885570        0.94201434377798
C           -1.03265272180610       -7.44252841765897        2.07734921783924
C           -0.87392997665861       -8.56519247839824        2.86496400957601
C           -1.48851341448586       -9.78481171112059        2.55877072990105
C           -1.27193240155596      -10.96551635395105        3.45964340741779
C           -2.30314347623850       -9.87848995345993        1.44379152521569
C           -2.48092606618073       -8.76457351525642        0.63256444218906
C           -3.26567514514153       -8.51227191791102       -0.54457620587135
C           -4.11039853137422       -9.29706592896957       -1.32016451483810
C           -4.73087548634704       -8.74082473101495       -2.42515566004250
C           -5.65815921155999       -9.55184161657461       -3.28230195202377
C           -4.49029521471018       -7.40114699988742       -2.75237471153722
C           -3.65440694434444       -6.59863983358496       -2.00211269320120
C           -3.05042231978701       -7.15880536707162       -0.88595473935556
C           -0.36157103952622       -4.96015937937113       -0.17734993742402
C            0.65781754976086       -6.03574748471006       -0.39561461332222
C            0.01581402356645       -3.62743495156548       -0.17007662242469
N           -1.41825402303945       -0.26374886099321        0.05370260868704
C           -0.97963373206711        0.99282779046081        0.04708063648781
C           -1.97017318451852        2.06393494056435        0.12936299788587
C           -3.32684656302081        1.76287763831723        0.24501425076483
C           -4.24851198363081        2.78343659556021        0.32830888078391
C           -3.83748867210512        4.11496598568214        0.29512243739982
N           -4.80689537435889        5.12592734886456        0.38521828071313
C           -5.84675528477397        5.31756449649287       -0.50323802604607
C           -6.15244385837617        4.62726572595488       -1.66705910802043
C           -7.24464928872603        5.05003610782545       -2.39785748415921
C           -8.02820276507999        6.14183651094607       -2.00575124661071
C           -9.20517366737354        6.54209910263232       -2.84673319838803
C           -7.70730570538860        6.83462533905087       -0.85138160291151
C           -6.61553529914082        6.42920956506869       -0.09336297010196
C           -6.01772608088569        6.91170803152166        1.12111949702884
C           -6.33326302706665        7.94021385536352        2.00041274542727
C           -5.56184695855581        8.12585377886012        3.13445894325184
C           -5.86389851155480        9.23091181980826        4.10397031243831
C           -4.48923581703461        7.26357069581482        3.38944829579451
C           -4.15310569051234        6.23338515231083        2.53409223590641
C           -4.90986569955496        6.07501032643866        1.38194025568146
C           -2.48079829971979        4.43572317463895        0.14580700958293
C           -2.02540483768685        5.85711304243943        0.02102937927298
C           -1.56778871320439        3.39657121510723        0.07542302649787
N            0.30490809643673        1.33344004616686       -0.03004778451442
C            3.53912093414405       -0.36767728369421       -0.29530371092775
C            4.89521779539139       -0.09587374299062       -0.36681178712122
C            5.88564077192562       -1.20418455740811       -0.55018734780521
H           11.97765985394625        0.96671127885350        2.57888936576544
H           11.20623110883854       -0.50243222935820        3.18929545404526
H           10.93057087468027        1.03517087012348        4.00104843723534
H            8.54104185648127       -0.18054610637047        3.48312922426180
H            6.52541066749666        0.19724099362783        2.11862707115288
H           10.96528811022258        1.91218592057605        0.65484336109449
H           10.53999671603148        3.22201437571458       -1.72165373846739
H            9.43163201656558        5.49154126889391       -4.15495443336251
H           10.83146508890585        4.51965359653346       -3.68369261989391
H            9.78826371180071        3.99483893632693       -5.01039350366945
H            7.16679262062749        4.03812372364397       -4.21515186984773
H            5.67329823074845        2.79969894562151       -2.69475423170438
H            4.70825304141999        3.28992259409782       -0.16606877362562
H            2.28428127018248        2.76173908695900       -0.05878773884762
H           -2.98937888017232       -2.12564451193259        0.19895841163347
H           -3.70420025941774       -4.50298106601381        0.21655994029457
H           -0.57218891986546       -6.50401586119233        2.34819186828542
H           -0.26043011438607       -8.50262308861853        3.75273064733763
H           -1.75779977829449      -11.85255321126677        3.06103111394416
H           -0.20779002741774      -11.17095222737371        3.57069350381545
H           -1.67691976697222      -10.76523127514688        4.45169665978149
H           -2.80359727837423      -10.80617870341741        1.20716773713653
H           -4.27776300711466      -10.33229489807822       -1.06067374476644
H           -6.65598337060166       -9.11341799459502       -3.28195130842286
H           -5.72913093359347      -10.57399483138937       -2.91912144936500
H           -5.30468238147513       -9.57212797725642       -4.31285684705929
H           -4.97576708626259       -6.98529988223561       -3.62400422895449
H           -3.47517968408020       -5.56937095292954       -2.27650165281651
H            1.51228053703837       -5.63667265264460       -0.93610001985429
H            0.23132750763914       -6.86125078172339       -0.96211471359806
H            1.01242617870852       -6.43485990774000        0.55404235960316
H            1.05389260889561       -3.35970895263381       -0.29369661686104
H           -3.63500986676631        0.73013992097781        0.27598929527167
H           -5.30136385705826        2.56405927754334        0.42930145018221
H           -5.55451762801308        3.78834276876461       -1.99201813544340
H           -7.50517393991436        4.52470161567971       -3.30584671270785
H           -9.67491502494828        7.44100325315107       -2.45546526253269
H           -9.94679159694773        5.74340841765819       -2.86492895968195
H           -8.89428662013406        6.72978272414017       -3.87395104331339
H           -8.29675078612869        7.68477022677003       -0.54024603141573
H           -7.17874446100445        8.58243926299953        1.80097393800365
H           -6.75620249994911        9.77604470279032        3.80672560089814
H           -5.02999489952957        9.93121578240398        4.15181618500995
H           -6.01812304540222        8.82918022163079        5.10494334018517
H           -3.91157906851430        7.40805358178992        4.29162952377498
H           -3.33965095565246        5.56163653407650        2.76547521531866
H           -1.91390795500196        6.31852141485737        1.00165679423445
H           -1.06510220910909        5.89975668516900       -0.48619457170247
H           -2.75088101778501        6.44463624429246       -0.53867484773986
H           -0.51608090574096        3.60860882605996       -0.04163715349419
H            3.18926382768040       -1.38731059780490       -0.34525856553324
H            5.39561258845480       -2.08141376257748       -0.96421468754808
H            6.33847546261072       -1.48248161982776        0.40085495416331
H            6.68769007166695       -0.89497391293006       -1.21808265847153
