126
 energy: -186.699775863612 gnorm: 0.000056409489 xtb: 6.7.1 (edcfbbe)
C            7.41235779587653       -8.27087451880368       -3.11994547749479
C            6.38760418227933       -7.61429874244628       -2.24178662119421
C            5.85126942003884       -6.37797174066399       -2.61975219702535
C            4.91200438392495       -5.71767623830990       -1.85321311103908
C            4.51011347620014       -6.31321644257930       -0.66624729159503
C            5.01024971204017       -7.57734095646050       -0.28279782550818
C            5.95544480117507       -8.21861197017786       -1.07402845489787
C            4.33357791033948       -7.93049027871357        0.93489287214310
C            4.39974092542699       -9.02777691130673        1.78499093505408
C            3.59572113120100       -9.06482627765057        2.91089819998542
C            3.63866504887238      -10.23102930153418        3.85466799331092
C            2.73493473401254       -7.99464208713743        3.18201517902250
C            2.65102265580238       -6.89030425128880        2.35796659621541
C            3.44975970182369       -6.86731053510603        1.22402881217281
N            3.58066171400040       -5.88670245763995        0.26047058776599
C            2.86709899353420       -4.67860069468958        0.22400370690280
C            1.47699079072175       -4.71905925162544        0.12945612487324
C            0.74354005833843       -3.55377422710979        0.08159079392092
C            1.39699746751982       -2.32276210036845        0.12667882228071
C            0.63417246231350       -1.07804837939312        0.06319699513904
N            1.30867171184312        0.06939336364922        0.05645317747236
C            0.57329858710817        1.17711886888213       -0.00755164014159
C            1.26877888054606        2.46236660834591       -0.00889468904473
C            0.54923262819048        3.65494648230769       -0.07451855329844
C            1.22016607118826        4.85832964819525       -0.08053843419873
C            2.61217604578419        4.89481768893819       -0.01943898326546
N            3.26077770615857        6.13967303416724       -0.03475494696570
C            4.14178214426751        6.58898014412729       -0.99741663513067
C            4.54695887788504        5.98243277390678       -2.17776297904680
C            5.42866324381459        6.67096894755214       -2.98674267713172
C            5.90395808148252        7.94572070580433       -2.65786158205729
C            6.86043839119877        8.63688677579435       -3.58519308167199
C            5.46892664197169        8.55830523704681       -1.49549542346151
C            4.58158535543795        7.88874159417088       -0.66186370241130
C            3.91828121205755        8.23926015641056        0.56380819241316
C            3.94734112181996        9.36190305119148        1.38226988545084
C            3.17166850409237        9.38794885250407        2.52812196323008
C            3.17503148561003       10.58099999194022        3.43863449527581
C            2.37756557174877        8.28130812800055        2.85124392757574
C            2.33213351702897        7.15131148451635        2.05961609120380
C            3.10135541652823        7.13878383824994        0.90526888907732
C            3.34978072235565        3.70664856122985        0.08053992702052
C            4.83974593401877        3.72570754329398        0.23242782614561
C            2.65886879896234        2.50639871806219        0.07363839883127
N           -0.75637149872793        1.18654569904256       -0.06889093382235
C           -1.34828644029261       -0.00552104555494       -0.05401458539317
C           -2.80768380444176       -0.04800316594357       -0.11301695295591
C           -3.54437110672646        1.12754311536342       -0.25322207084977
C           -4.91969057444911        1.06916298863826       -0.31056205005119
C           -5.58233671493188       -0.15426148610992       -0.22535073714880
N           -6.98452629252122       -0.17135997349546       -0.28353532766252
C           -7.82791206495871        0.46462233625520        0.60636174095168
C           -7.52093866273477        1.20739431697743        1.73704343279578
C           -8.56952218519733        1.71436011971793        2.47815649050180
C           -9.90683533452684        1.49224691033602        2.12899086086728
C          -10.99583400606094        2.07938832821214        2.97864965348739
C          -10.20465657586389        0.73667935440325        1.00830578869929
C           -9.16944868704133        0.21705584745318        0.24066541658484
C           -9.12485295649653       -0.59021308869849       -0.94741361734762
C          -10.10130643801439       -1.11992410357889       -1.78195029879044
C           -9.72163705663701       -1.83653027128455       -2.90359183112447
C          -10.74571468260464       -2.43430739906216       -3.82349385381807
C           -8.36173678421499       -2.00086486960501       -3.19091180205028
C           -7.37027237781959       -1.48688844320418       -2.37927354844279
C           -7.75839423649020       -0.79923198856336       -1.23837417911845
C           -4.85868309345754       -1.34282289784197       -0.05314446007183
C           -5.55194640438955       -2.65839902577279        0.12608805604625
C           -3.47658106648733       -1.26584272284148       -0.01079085501705
N           -0.69315789637486       -1.16222383745717        0.01388151135158
C            2.78487074413129       -2.28929277409623        0.24313362550341
C            3.53793701830446       -3.45005651424082        0.30419073383175
C            5.02260686289225       -3.38364904600315        0.49042177335429
H            7.72035999125886       -9.22886885120540       -2.70868386903230
H            8.29259213236392       -7.63549139736435       -3.21648630671199
H            7.00945082265511       -8.43456262504611       -4.11914018975917
H            6.18132172885634       -5.93182831502755       -3.54736539407485
H            4.48981024292276       -4.77802448502637       -2.17783473204657
H            6.34171372530937       -9.18399888434862       -0.78096901079471
H            5.07541773474310       -9.84190429790320        1.56653608591205
H            2.64620785797528      -10.66583961454946        3.96916002029836
H            4.31556525525751      -11.00036025721537        3.49175813156673
H            3.97596219679909       -9.90925864590350        4.83997500762139
H            2.11879215689451       -8.03718407100027        4.06907880230002
H            1.98665627885054       -6.07071895107405        2.58946110908015
H            0.98438359734959       -5.67930216413291        0.08326806932576
H           -0.33122039238820       -3.57479570177648       -0.00134453361443
H           -0.52700246872883        3.61713748656826       -0.12732631982609
H            0.67551751705864        5.78916899498915       -0.14173740785531
H            4.17086704449006        5.01177598419348       -2.46549306870175
H            5.76017629345074        6.21667980286686       -3.90989469209501
H            7.19342411663866        9.58286837898673       -3.16561601844146
H            7.73279612523636        8.01106278351852       -3.77024659064046
H            6.38279181080996        8.83313934740778       -4.54529529314821
H            5.80790470340908        9.55154376603986       -1.23926391059704
H            4.57213786774008       10.20440069293020        1.12361211924058
H            2.16483542562717       10.97106053211661        3.55932200742270
H            3.80767941607088       11.37117454532586        3.04220325306176
H            3.54416829046902       10.30356891674684        4.42597166876700
H            1.78322647374478        8.31569735663106        3.75341708172122
H            1.71974086918323        6.30426148812406        2.33181566347701
H            5.18166172213593        2.80241483915503        0.69275376734959
H            5.15167314002343        4.56790151594871        0.84742544775461
H            5.32885126796423        3.82610165222914       -0.73585239300233
H            3.19606502571058        1.57350050703779        0.14897888458102
H           -3.02342902367393        2.06892075636124       -0.32374055613522
H           -5.50173083447949        1.97128031143480       -0.43000301908370
H           -6.49562900514000        1.38129871136008        2.02929025342850
H           -8.35497372677674        2.30038049805794        3.36071203569039
H          -11.97531045250269        1.76316435380329        2.62883084239224
H          -10.95276057450040        3.16824073177724        2.95020863809563
H          -10.87921006391674        1.76944640287416        4.01659311876736
H          -11.23160152592081        0.54908823538962        0.73039286227531
H          -11.14674961501257       -0.96424702350351       -1.55869507639045
H          -11.75132829620839       -2.15244736806877       -3.52170950441127
H          -10.67368183876152       -3.52201707913278       -3.81380069947444
H          -10.58200903629667       -2.09974854413658       -4.84729703922633
H           -8.08261269724625       -2.54270683661244       -4.08365199661249
H           -6.32746073231346       -1.60057045499315       -2.63605911741353
H           -5.82287265570326       -3.09102927956846       -0.83636743672932
H           -4.89985080001992       -3.35813694234721        0.64224689303142
H           -6.46793825086145       -2.53418688790667        0.70081604034795
H           -2.88977178510054       -2.16157187627947        0.12381766498707
H            3.26984497060627       -1.32702396708511        0.30202679823316
H            5.30248821368846       -2.43229329201205        0.93519735737081
H            5.53959337166339       -3.47954526711763       -0.46374597260631
H            5.36535787571794       -4.19237688336179        1.13322201359553
