  99
       -149.93378739
 C         -1.2340536469       -4.8736924968       -1.1809204640
 C         -0.8494361654       -3.6412830659       -0.4301914732
 N          0.4171215312       -3.2575445544       -0.5113980585
 C          0.7678154115       -2.1729186194        0.1762423521
 N          2.0809929501       -1.7119495084        0.1217966414
 C          2.7003733720       -1.3081083892        1.3047522423
 C          2.4062381863       -1.9554001038        2.5044309163
 C          3.0568927413       -1.5984426671        3.6679024113
 C          4.0237153772       -0.6064258097        3.6461615355
 C          4.3285827073        0.0297141683        2.4559818223
 C          3.6748583351       -0.3083616696        1.2803279495
 C          3.9114559070        0.4257195906       -0.0228673937
 C          2.8262068177        1.4840956512       -0.2222192245
 C          1.9700901463        1.8638541493        0.8031613372
 C          0.9975082922        2.8267361552        0.5924815430
 C          0.8678412605        3.4301775024       -0.6455850225
 C          1.7207823574        3.0635465841       -1.6731254464
 C          2.6881294387        2.0976905467       -1.4634843138
 C          5.2996496206        1.0410523945       -0.0104934122
 C          6.3977630069        0.1858487608        0.0366499919
 C          7.6837109124        0.6888352688        0.0712800517
 C          7.8945932899        2.0585018150        0.0652649922
 C          6.8091829617        2.9147549556        0.0312486726
 C          5.5188773487        2.4106646057       -0.0035090155
 C          3.7725362966       -0.5763603667       -1.1592801552
 C          4.5187553556       -0.4636394072       -2.3233615760
 C          4.3028598028       -1.3115570951       -3.3949933066
 C          3.3249442529       -2.2871336164       -3.3085337082
 C          2.5870438804       -2.4316689617       -2.1502064627
 C          2.8037000765       -1.5821062070       -1.0690186312
 C         -0.1521176598       -1.4534583857        0.9289384652
 C         -1.4712755360       -1.9030817905        0.8925986290
 N         -2.4995938893       -1.1910239001        1.4482595820
 C         -2.3203023791        0.1420781131        1.8776125561
 C         -1.5636158650        0.4449843728        2.9994469194
 C         -1.4378993211        1.7630085130        3.4021710831
 C         -2.0731232241        2.7678445770        2.6922581612
 C         -2.8362721934        2.4633280733        1.5763061556
 C         -2.9705700782        1.1492124239        1.1611918119
 C         -3.7348412871        0.6953343447       -0.0714189930
 C         -4.6149199402        1.7961269177       -0.6187717717
 C         -4.4540785254        2.3052953647       -1.8989619473
 C         -5.2817975866        3.3155019097       -2.3611171263
 C         -6.2779396663        3.8294543435       -1.5507129297
 C         -6.4428031925        3.3293807320       -0.2690351807
 C         -5.6173683593        2.3219409939        0.1928624677
 C         -2.7170112713        0.1887366986       -1.0978546435
 C         -1.4256722624        0.6993121009       -1.1388301493
 C         -0.4840930976        0.1693230792       -2.0037472998
 C         -0.8229096714       -0.8693911556       -2.8519020619
 C         -2.1193743774       -1.3545170945       -2.8487035265
 C         -3.0590901668       -0.8299507590       -1.9802772094
 C         -4.5412935888       -0.5190719242        0.3682831614
 C         -5.8623553102       -0.7629949733        0.0329931448
 C         -6.4653692097       -1.9538381791        0.4051372856
 C         -5.7508821140       -2.9132025914        1.1016391238
 C         -4.4309304012       -2.6816650134        1.4469622207
 C         -3.8345564831       -1.4870566113        1.0823849252
 N         -1.8008190844       -3.0234237924        0.2401815917
 H         -1.1256089685       -4.6938929581       -2.2489417764
 H         -2.2648476270       -5.1295419772       -0.9570210516
 H         -0.5734573720       -5.6943484753       -0.9106450027
 H          1.6687142637       -2.7439733229        2.5128621078
 H          2.8168864043       -2.1034151739        4.5917402894
 H          4.5359067336       -0.3256262520        4.5539032022
 H          5.0717061611        0.8126136287        2.4429882060
 H          2.0614442855        1.4163434768        1.7817111773
 H          0.3365731786        3.1017168390        1.4018124943
 H          0.1070600826        4.1791116145       -0.8101000742
 H          1.6294326614        3.5282757281       -2.6442183323
 H          3.3436380610        1.8162672486       -2.2739439889
 H          6.2355635875       -0.8822934430        0.0449063348
 H          8.5250650781        0.0121734795        0.1045390203
 H          8.8991666518        2.4540019595        0.0911336381
 H          6.9636843978        3.9841347078        0.0339292326
 H          4.6832118639        3.0936378733       -0.0220834464
 H          5.2761258270        0.3031911194       -2.3967139242
 H          4.8911027585       -1.2031734824       -4.2940499528
 H          3.1436478492       -2.9490167591       -4.1425049786
 H          1.8333631711       -3.1962949219       -2.0641028320
 H          0.1372291226       -0.5500315567        1.4366006020
 H         -1.0820032321       -0.3483968299        3.5510661867
 H         -0.8448031459        2.0037240052        4.2718251605
 H         -1.9727824780        3.7965993964        3.0058783434
 H         -3.3146830327        3.2551714335        1.0200229190
 H         -3.6791959493        1.9134781107       -2.5406382319
 H         -5.1454250065        3.7013835914       -3.3608584676
 H         -6.9229615946        4.6159375174       -1.9135263928
 H         -7.2171825312        3.7256843295        0.3715547482
 H         -5.7472672366        1.9343212263        1.1935115597
 H         -1.1398700456        1.5071882943       -0.4817245845
 H          0.5207784451        0.5641995068       -2.0038742618
 H         -0.0787161913       -1.2953493051       -3.5084257892
 H         -2.4010786479       -2.1557230379       -3.5159999613
 H         -4.0625279886       -1.2287749235       -1.9787853871
 H         -6.4180530235       -0.0333118944       -0.5370840255
 H         -7.4949706463       -2.1357577403        0.1352993040
 H         -6.2224047071       -3.8440853570        1.3779531953
 H         -3.8564770809       -3.4199306673        1.9823734592
