99
 energy: -149.878464985605 gnorm: 0.000071077719 xtb: 6.7.1 (edcfbbe)
C           -0.00082455944907       -5.80114288450622       -0.05454269817434
C           -0.02116685648579       -4.30418309484676       -0.00832893809677
N            1.13365055731714       -3.68474734966879       -0.09797792416400
C            1.12831646832578       -2.30096413720176       -0.10718826919196
N            2.30938058299406       -1.57199680979692       -0.27890426679015
C            3.43243606441496       -1.76785100058248        0.51491990037121
C            3.64486854176212       -2.98883923853819        1.16111020702485
C            4.79873332373733       -3.20189424562661        1.88571413773509
C            5.74925164261075       -2.19770545872020        1.99227881849298
C            5.52823859832732       -0.97374093760076        1.38119511142488
C            4.37824959115196       -0.73823782035953        0.64434837465894
C            4.06556047390392        0.62718747299815        0.06623262015557
C            3.14346336656752        1.39069194145258        1.02494678765081
C            2.96674684223569        0.99684997569163        2.34493345035767
C            2.12240687519907        1.70349435920739        3.18559681047566
C            1.44166637330643        2.81498995147659        2.72292399453815
C            1.61913781386715        3.22172396891656        1.41102299370477
C            2.46100810763654        2.51553031063172        0.57149280097646
C            5.35834094308065        1.38426319560776       -0.19314919960355
C            6.24306746465568        0.87094565733757       -1.13857538151210
C            7.43967661213867        1.50836993425522       -1.40539046490492
C            7.77494101815692        2.66928709703369       -0.72635779735158
C            6.90667002657083        3.17983134977774        0.22173350936995
C            5.70612350897624        2.54092245636009        0.48940636286217
C            3.28580165650361        0.43405432206508       -1.21958427160049
C            3.38113207981941        1.31604605188943       -2.28346251747310
C            2.58623162850327        1.17079079875718       -3.40914954169155
C            1.67354904903728        0.12571934874256       -3.47680703175185
C            1.56644466361676       -0.76541356658896       -2.43359831620836
C            2.36962684891679       -0.62809866234513       -1.29373830121139
C           -0.06317037552516       -1.60954175683429        0.06974937880527
C           -1.22984831750413       -2.34607050553724        0.20643022161755
N           -2.42993328585150       -1.65774389932079        0.39442455732210
C           -2.50528949899212       -0.71619083459898        1.41098418594821
C           -1.77509376572561       -0.89103492148230        2.59232670313976
C           -1.90008067267952        0.00971463777522        3.62598687083262
C           -2.74452758353478        1.10669105985428        3.49790848155120
C           -3.46374042845165        1.29029177003906        2.32716043624199
C           -3.36356954370895        0.38898991143868        1.28150962569529
C           -4.06821054849461        0.58075072820051       -0.04453776372813
C           -5.28001804573237        1.47744754118195        0.13485544209236
C           -5.37544503924827        2.73688217691678       -0.43897658773195
C           -6.49789033524439        3.52185423055816       -0.22673468750706
C           -7.53491378250931        3.06081358903349        0.56417188021435
C           -7.44270849099242        1.80826421602099        1.15051133264940
C           -6.32354953008279        1.02564710648656        0.93948772481877
C           -3.07724579258075        1.14454937415285       -1.06991214044401
C           -1.85569478101410        1.68536702881921       -0.68918790283177
C           -0.96581426045323        2.15882685872689       -1.63897617897838
C           -1.28663605768791        2.10910670581309       -2.98316772623495
C           -2.50763442307185        1.58395113453859       -3.37212944316402
C           -3.39236532887435        1.10284679476072       -2.42445144204782
C           -4.46306490394128       -0.79114591178720       -0.56368582740716
C           -5.62372473326579       -1.01418774870272       -1.28602909847218
C           -5.88262349787937       -2.25065761786753       -1.85654714983706
C           -4.96143460299244       -3.27916548438581       -1.72552959488592
C           -3.79872618549826       -3.07977934448581       -1.01089310721942
C           -3.55086437279499       -1.84630391343144       -0.40557095551516
N           -1.19844082467585       -3.72462887795808        0.11850969922264
H            1.02325422965758       -6.15295159195359       -0.13572078247936
H           -0.57587582516535       -6.14821778436917       -0.91083484929670
H           -0.46245068137683       -6.20342032832608        0.84498513454217
H            2.90003266429192       -3.76237319671067        1.06250502035330
H            4.95477123998479       -4.15248345326582        2.37356060314354
H            6.64976854930738       -2.35696886194731        2.56560768090414
H            6.25329353560773       -0.18196771154316        1.49600945358639
H            3.49214841862526        0.13569562686321        2.72978081400097
H            2.00055212502535        1.37971118478275        4.20906095659604
H            0.77986109580301        3.36179356512690        3.37823021035849
H            1.09887269793394        4.09266250375611        1.03879358292040
H            2.59323866837307        2.84515012423180       -0.44822852387594
H            5.98494196300333       -0.03637033325594       -1.66669823493471
H            8.11305113085688        1.09790435237181       -2.14375057988750
H            8.70940749812078        3.16966062953816       -0.93406444160594
H            7.16155299802841        4.08070146574423        0.76109145972892
H            5.04245207634033        2.94882687340430        1.23721986799381
H            4.09113441451403        2.12889388233886       -2.23546356060808
H            2.67789184978010        1.86921475700681       -4.22661127333191
H            1.05203153998032        0.00059429738393       -4.35048718968274
H            0.87438887255579       -1.59242472068500       -2.49152819776355
H           -0.08263657442026       -0.52950512265688        0.09224242982289
H           -1.12987318606503       -1.75261349539110        2.68581242956285
H           -1.34254345840635       -0.14222584231054        4.53791121294852
H           -2.83721910422992        1.81808550388153        4.30386695228651
H           -4.10518960549927        2.15267498728537        2.22381735104383
H           -4.57120388471893        3.11310942435177       -1.05349211918232
H           -6.55741827203936        4.49983276309978       -0.68228609580074
H           -8.40930632139995        3.67370844250807        0.72708657477669
H           -8.24420064687115        1.44126314782414        1.77506606617308
H           -6.25108950022080        0.05120527560876        1.40211977933082
H           -1.59070641974584        1.74563853231328        0.35639837060083
H           -0.01636059952300        2.56370293797011       -1.32140986469330
H           -0.59056124443253        2.47787497496488       -3.72119173584212
H           -2.77347412356717        1.54544818946299       -4.41857546192021
H           -4.34005790688952        0.69271916037750       -2.74029165984124
H           -6.33258298800628       -0.20941285737604       -1.41501420019510
H           -6.79211414796836       -2.40217952240861       -2.41790397185716
H           -5.14941675124352       -4.23856341056467       -2.18390797488713
H           -3.07339335335074       -3.86878703524559       -0.88804722548946
