133
 energy: -189.476429435449 gnorm: 0.000054651280 xtb: 6.7.1 (edcfbbe)
C           -0.26689005019596       -9.20200561207871        1.51807159366567
C            0.29783458202043       -7.89930022798085        2.09291450646057
C            1.79717551788141       -7.84303715851389        1.76216845379107
C            0.10155480292370       -7.92450912757664        3.61659917662061
C           -0.38371757825199       -6.66435030851541        1.52348711738402
C            0.04030158105725       -5.39807555377067        1.94790733917775
C           -0.51413304024536       -4.22391781746435        1.47822185446712
C           -1.52678441950489       -4.31325502847919        0.53314926453563
C           -1.99590667195930       -5.57757777902046        0.11566101817877
C           -1.42449028327191       -6.74109848630486        0.60564142789210
C           -3.07730696383940       -5.32627714133235       -0.80343430285694
C           -3.89466224840093       -6.16162754936092       -1.54783856726655
C           -4.85234566511779       -5.61451761388828       -2.39340358268496
C           -5.78842326881021       -6.47091770630501       -3.23243408081026
C           -7.24198246647975       -6.13764494000933       -2.86284549099590
C           -5.57378177128701       -7.97118122749355       -3.00956516971761
C           -5.54776984038930       -6.16920814283650       -4.71958135093486
C           -4.94433248348788       -4.21920312411759       -2.48297656675410
C           -4.14187339861517       -3.36461809905844       -1.75330491829245
C           -3.21252824603177       -3.92302167330973       -0.88663330781418
N           -2.26930479098358       -3.31976457338343       -0.07663364523260
C           -2.08595596548460       -1.94895521182178        0.09969193145321
C           -3.20146703018876       -1.12147198947103        0.31958784048500
C           -3.04736275513384        0.24307556425563        0.52291949841918
C           -1.77065680404592        0.77445690371972        0.49771145164779
C           -0.63274521336624       -0.04929482962149        0.22599531858040
C           -0.79919089241791       -1.41988250916631        0.04578879768367
C            0.49813888729632        0.80993218215227        0.20368395394281
C            1.85995195693198        0.59984175600720        0.00141761824164
C            2.72503369508273        1.68644426671653        0.10151322902781
N            4.09231931612705        1.49457095959229       -0.08917696255843
C            4.92750789851801        2.28703660258220       -0.85307774129304
C            4.63932406147892        3.38411751018368       -1.65289601360705
C            5.67864843510033        3.97313385320090       -2.34535568021586
C            6.99807596055059        3.50550232621916       -2.28274647665958
C            8.07567594998190        4.22907482570793       -3.07575616102895
C            9.46219840148131        3.60402789235169       -2.89275225902494
C            7.72073107582803        4.17609863512394       -4.56970483850286
C            8.14685294220100        5.69138557454644       -2.60991666005352
C            7.26736868612822        2.38491242264811       -1.50588259114915
C            6.24253649281673        1.77551109995306       -0.80001303165267
C            6.19336724750992        0.61446497765059        0.05283161383763
C            7.16057179554433       -0.27497568785429        0.49287449396239
C            6.80803447061138       -1.30538934825655        1.35643040573266
C            7.81531270670055       -2.32284713260639        1.87040792053624
C            7.35636436742646       -3.73251380152664        1.46685221887912
C            7.89692723763723       -2.22092830152346        3.40131227285361
C            9.22029477944812       -2.10011714411416        1.30223456992438
C            5.47487890903120       -1.39637663634621        1.77789323870487
C            4.49244958879344       -0.52248197736467        1.35607185663600
C            4.84966924390668        0.47939084967479        0.46436878069392
C            2.24305636325642        2.97206514323706        0.40624376158751
C            0.88709056013281        3.19695038588130        0.59942619391179
C            0.01710109570649        2.12877356070454        0.47762903712878
N           -1.35229683473019        2.08160573835175        0.64105536644590
C           -2.17296057827645        3.17513182303680        0.90417416081016
C           -3.14509440829441        3.10745981225489        1.92275253971202
C           -3.94081696513882        4.19064270470619        2.19055899876063
C           -3.78764461501240        5.37147847938442        1.45555567313063
S           -4.92163227577343        6.70087983527281        1.69091761540987
O           -5.42214457832577        6.66880013624739        3.05721019649215
O           -4.30141539743534        7.94308577667874        1.25454108017313
C           -6.26248399159147        6.31267057585351        0.58376041173052
C           -6.20683877528359        6.74502762746856       -0.73458209170922
C           -7.19036420809058        6.35063231081408       -1.62069778074343
C           -8.21874605014260        5.51828105249927       -1.19430189520709
C           -8.26377234418577        5.08523760909507        0.12587781725229
C           -7.28322003725221        5.47660872039202        1.01655431782455
C           -2.83681834460035        5.44390457107674        0.43190340392662
C           -2.03127191961586        4.36716631625570        0.16573672183993
H           -0.14023198766690       -9.24123331091684        0.43845628692675
H            0.26545848778573      -10.04769285250408        1.94891383155249
H           -1.32138740086231       -9.31330280559324        1.76023149062878
H            1.94361674345006       -7.80154366439774        0.68454921738854
H            2.27069054360353       -6.97111709985047        2.20450998671990
H            2.29649701602836       -8.73101575363962        2.14403578833221
H            0.56200801110598       -8.81600385681435        4.03727069338991
H           -0.95927177162366       -7.93700746885813        3.85967514323092
H            0.54911202872131       -7.05533555251059        4.09059190042307
H            0.82966785620878       -5.32286225378024        2.67956036189093
H           -0.17509176897346       -3.26946888434547        1.85063030750171
H           -1.80592271816341       -7.68891748242720        0.26585766714027
H           -3.76464340506602       -7.22688956321691       -1.46011523709777
H           -7.47565711739940       -5.09548141476221       -3.06184820834364
H           -7.92490798507053       -6.75503562217412       -3.44264578135112
H           -7.41567034658069       -6.33030335526165       -1.80578627599998
H           -4.56849992159968       -8.27069166557322       -3.29704625123971
H           -5.74592361407760       -8.24142274801059       -1.97011592233974
H           -6.27727944858492       -8.53150422506504       -3.62222687060951
H           -5.75491562351750       -5.12858504890528       -4.95328401415398
H           -4.51303782064281       -6.37869223216518       -4.98402670202325
H           -6.19405190081128       -6.79096752599944       -5.33557806666631
H           -5.66731750791244       -3.77874504971411       -3.15191704797868
H           -4.23260499112864       -2.29580223466029       -1.87000372994936
H           -4.18338719495823       -1.56266902118397        0.37228843169500
H           -3.91091543970181        0.86490572112328        0.69815602717001
H            0.04363991179880       -2.05284823188790       -0.18172654331972
H            2.23393540757830       -0.37504380764105       -0.26769220003594
H            3.63366891027122        3.76429378870198       -1.74515401678884
H            5.44939090967886        4.82859327121714       -2.96166095981125
H            9.47833773721216        2.57514542692088       -3.24506466772540
H            9.76977816926609        3.63191587803227       -1.84980669887928
H           10.19124209326318        4.16699303079294       -3.47213070952416
H            8.49718158723621        4.66438108587719       -5.15482628547263
H            7.63730690368264        3.14257597547449       -4.90038844463411
H            6.77773165946472        4.67598391831667       -4.77282301111735
H            7.20635143798146        6.20931770943529       -2.77597404282925
H            8.37894131675361        5.73793115443491       -1.54756785613867
H            8.92570599371479        6.21922720150221       -3.15628184994732
H            8.25925869991870        1.97094873436591       -1.44172742791617
H            8.17565114680342       -0.14448230662079        0.15842500768023
H            7.26976060039605       -3.80467221215813        0.38438276074628
H            8.08045658003712       -4.47077992756599        1.80492923557754
H            6.39252059974826       -3.97855801896017        1.90337287714341
H            8.20068519902931       -1.21853348112180        3.69708799846106
H            8.62885128710074       -2.92931179997531        3.78372587135081
H            6.93930486306071       -2.43741256588419        3.86663742618469
H            9.89280037267578       -2.86145372548912        1.69256532991295
H            9.22072235536423       -2.17722212442616        0.21725300820011
H            9.61207441057252       -1.12811860378017        1.59327135531166
H            5.19100511582906       -2.17537821080940        2.46828523212243
H            3.48270036001547       -0.61236886766346        1.72585195742281
H            2.94468312800730        3.77957701240131        0.53901693582501
H            0.53253308360697        4.17914877805860        0.87103254304219
H           -3.22626467350109        2.20955384177738        2.51621521327500
H           -4.67234929597589        4.17418001934725        2.98315998386002
H           -5.40121488613065        7.39983229287600       -1.02899158127710
H           -7.15990489205604        6.69143261912705       -2.64500863479992
H           -8.98684153056179        5.21201082613011       -1.88804663561137
H           -9.06704873489198        4.44405006144269        0.45746316035783
H           -7.29532277994845        5.16987639129786        2.05110627511078
H           -2.75124180149456        6.36618488735194       -0.12090692750519
H           -1.30830265476667        4.41027090885788       -0.63452300006388
