133
 energy: -189.565782634463 gnorm: 0.000045982243 xtb: 6.7.1 (edcfbbe)
C           -7.55626094599561       -3.60696453183890        3.47826781508384
C           -6.09600672768553       -3.27444376192653        3.80102115977362
C           -5.25712935709999       -4.53827555547975        3.55886269196369
C           -6.01566550343810       -2.87350248106492        5.28185815940574
C           -5.55090799209705       -2.13855252912625        2.94529847760744
C           -4.22202275114313       -1.73090915594590        3.12772608998468
C           -3.64198828001423       -0.71230646490732        2.39921752897618
C           -4.41527062608103       -0.07375332159889        1.44159308164445
C           -5.76166002144853       -0.45040526055743        1.25094112223625
C           -6.31884842830005       -1.48003817402320        1.99876415816325
C           -6.28834038040261        0.42233157510512        0.23740128873544
C           -7.52585170801658        0.52781116883649       -0.37836758675996
C           -7.73636007176640        1.48497072260657       -1.36257878871134
C           -9.10635387118523        1.57988864228071       -2.02260977626980
C           -9.41813191359591        0.24737058591414       -2.72074897405899
C           -9.18905515162241        2.69462872889142       -3.07011927872687
C          -10.16583520323567        1.86166500935214       -0.94647245455086
C           -6.67166380159089        2.31827696257686       -1.71918238115551
C           -5.42619614958038        2.23471991680561       -1.12356055305363
C           -5.23577925233179        1.29061388309833       -0.12832341149654
N           -4.10695409810569        0.98002489648227        0.60401893593054
C           -2.86379374801437        1.62513221078700        0.51294689443110
C           -2.80414769979203        3.02077269822113        0.61805796323888
C           -1.60798079751700        3.70194041839353        0.52001853331407
C           -0.45037630467380        2.96384797870412        0.31417394785446
C           -0.49514997810901        1.55265558230358        0.24706739620782
C           -1.70608086946439        0.88165089933568        0.33366263237841
C            0.86129721536214        1.10701516271539        0.08567262663686
C            1.43325456129396       -0.14935730093344       -0.05132298592255
C            2.80539416044786       -0.23586130162668       -0.24002769108192
N            3.41736204509021       -1.48845370779981       -0.39724131760901
C            3.01842233460523       -2.48294742135314       -1.26917938925148
C            1.98441317273529       -2.50390423453104       -2.19292697404388
C            1.82465272732096       -3.63782886330654       -2.96318678668664
C            2.66221542420308       -4.75690106737833       -2.85696814119135
C            2.39339972435562       -5.96335998101222       -3.74661018486209
C            2.49194468542541       -5.53837724006407       -5.21943234039495
C            3.39183894995159       -7.10165010474407       -3.51361836407072
C            0.98420397262535       -6.50024768177646       -3.45390362912553
C            3.70706981242041       -4.71420914721099       -1.94830565428329
C            3.89114569532717       -3.58613465695676       -1.15861177170031
C            4.86473712867212       -3.23611676870105       -0.16067676777370
C            5.94830661727079       -3.90526583317530        0.38689172570515
C            6.71093600115908       -3.30375652876637        1.37961010008742
C            7.90095788184504       -4.05853221025729        1.95866546504246
C            7.40866631971806       -5.37587462469326        2.57690175110777
C            8.63565650034666       -3.27045350729529        3.04761878684174
C            8.90104358354184       -4.35682662334926        0.83134171264584
C            6.34785301562216       -2.02557693586444        1.81489047344728
C            5.27298446939192       -1.33403002433829        1.28627643216301
C            4.53539466839208       -1.93502617615252        0.27977569524263
C            3.58975661867332        0.92380571837135       -0.29517613193865
C            3.03687653661126        2.17820517984387       -0.13742653941650
C            1.66720462032271        2.26775405100444        0.07029921636277
N            0.86349919929733        3.38550415828289        0.21011489653701
C            1.30391059859949        4.71001615164132        0.25162803606338
C            2.36935781755042        5.06710272194836        1.08131188434050
C            2.80311273493623        6.37803044710759        1.12273866034915
C            2.16829018485762        7.32998940608165        0.34540000527033
S            2.75717708533119        9.02421771885861        0.41051562648718
O            1.93748646783160        9.82987557745497       -0.47055876091597
O            2.82710762120124        9.43932154786557        1.79625846584513
C            4.42288019455228        8.94000904819493       -0.25397486943095
C            4.58435130715174        8.56748592960889       -1.57526141155447
C            5.86403396296060        8.48397970316025       -2.09883389898100
C            6.95911117017382        8.76977510494534       -1.29662854729345
C            6.78303199930886        9.14054374185145        0.02744405507417
C            5.50437708753393        9.22468572577696        0.55596923349602
C            1.11320608198449        6.99286333759755       -0.48082155721272
C            0.67941067975397        5.68122587377657       -0.53237775115406
H           -7.66694025142047       -3.91753018788947        2.44159012628915
H           -7.88947825581571       -4.42671798631867        4.11203598736335
H           -8.20346416279750       -2.75324282019654        3.66703622981627
H           -5.29356279286904       -4.81790974447235        2.50752680408503
H           -4.21734198324444       -4.38395055629847        3.83388722709525
H           -5.64614846915139       -5.36493503844689        4.15010003726610
H           -6.42384918147706       -3.66487317090878        5.90754283194817
H           -6.58851834230302       -1.96461338165935        5.45679152175412
H           -4.98919359510495       -2.69257420336354        5.58900364424780
H           -3.61505825798816       -2.22484544621312        3.87149605893252
H           -2.61923752741067       -0.41794942805072        2.58323879488365
H           -7.34975656830932       -1.74184567473468        1.82747763089518
H           -8.31455441936080       -0.14701753189081       -0.08269402119408
H          -10.38866132722113        0.29765511538606       -3.21052005026997
H           -8.66196685196242        0.03132069234392       -3.47329048373582
H           -9.43653750000461       -0.57590031094429       -2.01179245573250
H          -10.19097478259579        2.71739925914666       -3.49494057253479
H           -8.99177993606731        3.66712398133957       -2.62435863142751
H           -8.48554151617238        2.52363289433369       -3.88193805988026
H           -9.93948417944792        2.79290619304734       -0.43034270316995
H          -11.15001443243358        1.95011262873713       -1.40246300456113
H          -10.20394941704979        1.06495423212628       -0.20869009502560
H           -6.80447983831776        3.05992930333346       -2.48962866049463
H           -4.62548139763702        2.88736008638629       -1.43859809005414
H           -3.71857294762616        3.56677149112103        0.79412352567324
H           -1.58137968716025        4.77551209148278        0.62264798909029
H           -1.75158304926401       -0.19360788523714        0.25831266309996
H            0.82771451829518       -1.04116223386214       -0.01001900095192
H            1.32527244426516       -1.65803281928174       -2.31983824466487
H            1.01521672035229       -3.64898342423440       -3.67752636792943
H            3.48014519622967       -5.13257608555771       -5.42804640041800
H            1.75408263093228       -4.77919367765208       -5.46393022979698
H            2.32592787515605       -6.39551789555597       -5.86910478235895
H            3.15020759963857       -7.93536140034836       -4.17026430382417
H            4.40784482813622       -6.78298912066485       -3.73616551380220
H            3.34564808491843       -7.45858632625074       -2.48706666808975
H            0.90095833241546       -6.78617230290276       -2.40692908062401
H            0.22311470562162       -5.75360681277084       -3.66362132569175
H            0.78083668035209       -7.37531637119576       -4.06812679268172
H            4.39162304662888       -5.53862346693906       -1.83643928958097
H            6.18243006829248       -4.89700521690033        0.03114268673856
H            6.67996688966259       -5.17457181628854        3.36008705199106
H            6.93940124091498       -6.01277260197997        1.83208051415832
H            8.24332133987580       -5.92104425157286        3.01338191027280
H            9.03181286631992       -2.33609251762560        2.65617460766921
H            9.47204209791225       -3.86027528241143        3.41820259736686
H            7.97830737370160       -3.05677473066775        3.88754783951145
H            8.44992243741441       -4.96571007539133        0.05256646080332
H            9.24690622110693       -3.42869697785002        0.37986746012529
H            9.76315523617308       -4.89134394419604        1.22558257073228
H            6.91278170427919       -1.54319778328814        2.59551226636821
H            5.01576316120946       -0.35492975632508        1.66242900417476
H            4.64836032540459        0.82504745232054       -0.48110350380680
H            3.65549979984908        3.05968002064685       -0.19946674285056
H            2.83567050327364        4.31888441641414        1.70295600498112
H            3.61425450465679        6.67760515869268        1.76724679776478
H            3.71228341863756        8.36142564144050       -2.17595915349630
H            6.00630994626713        8.19747083171867       -3.12956355226975
H            7.95544643120955        8.70531154896533       -1.70736271159261
H            7.63692649124622        9.36473736289606        0.64833618766416
H            5.32461904549233        9.51361601251857        1.58010845457507
H            0.64986158796448        7.76687593552835       -1.07278631857335
H           -0.12964968696255        5.40084890040063       -1.18864473145408
