133
 energy: -189.476413619219 gnorm: 0.000078638472 xtb: 6.7.1 (edcfbbe)
C            0.11229881220368       -9.14716999744955        1.74676872140517
C            0.59798276345511       -7.81052684581561        2.31586471832252
C            2.10022427060658       -7.68484962249005        2.01925732955658
C            0.36720351960906       -7.82466946239809        3.83484635752707
C           -0.13035815772601       -6.61867819585758        1.71338335606275
C            0.22587639011946       -5.32689362310111        2.12302171887627
C           -0.37401540276345       -4.18816908655637        1.62292266860495
C           -1.36352572314110       -4.34085393557189        0.66157153905219
C           -1.76633048670817       -5.63273809739212        0.25943409925803
C           -1.15025173914971       -6.75970692720151        0.77980059430201
C           -2.84133955098162       -5.44793380640964       -0.68270287965119
C           -3.60598595235685       -6.33337086622377       -1.42527094562020
C           -4.57182836355330       -5.84634849038866       -2.29789244715199
C           -5.45125389921936       -6.75965615743022       -3.13826280072662
C           -6.92595087361802       -6.48198165854035       -2.80862330760192
C           -5.17810096434464       -8.24428632896262       -2.87783094632968
C           -5.18900563548326       -6.47829966863453       -4.62576384570530
C           -4.72558057824072       -4.45861109771603       -2.41546210997690
C           -3.97662592438926       -3.55492530860561       -1.68809302873302
C           -3.03876844033834       -4.05409474858842       -0.79487628365755
N           -2.13906863345709       -3.39355186635214        0.02018920889362
C           -2.01447812517072       -2.01245795443712        0.16443130462594
C           -3.16594319419115       -1.22445529607344        0.33974757878708
C           -3.07031279553992        0.15099530274628        0.50221321347708
C           -1.81573078539489        0.73284774134188        0.48060012741985
C           -0.64084833980557       -0.05251061238812        0.25785814960197
C           -0.74887811557618       -1.43365421431977        0.11903092769197
C            0.45482940380701        0.85085246457917        0.22625078987411
C            1.82786398230522        0.68916991785392        0.05987333034650
C            2.64663465170077        1.81289128928978        0.13787547105822
N            4.02422461838507        1.66575583230243       -0.01469469661638
C            4.84926043009700        2.45184189260874       -0.79584039597575
C            4.54416358722950        3.50874715317465       -1.64207181153471
C            5.57785145724828        4.09812580137936       -2.34269600640114
C            6.90779218760317        3.66771546870791       -2.24518601336695
C            7.97724017454176        4.38661195868252       -3.05336341373023
C            9.37493525159455        3.79854357499977       -2.83611774408071
C            7.63912466059606        4.27467783494993       -4.54798141094986
C            8.01200320940737        5.86527790828474       -2.63757277872101
C            7.19532148718431        2.58733155093432       -1.41944480100604
C            6.17710913875734        1.98059835465734       -0.70191127660059
C            6.14705982616911        0.85478513100871        0.19779239859180
C            7.13177926145911        0.01436872592971        0.69220695607633
C            6.79354658495263       -0.98881288306327        1.59281630222290
C            7.82023646576742       -1.95278851497421        2.16783436925272
C            7.40657783071882       -3.39232182410636        1.82554059870939
C            7.87495338053113       -1.77638560261599        3.69313270505130
C            9.22701029859916       -1.71795490879252        1.60921252881610
C            5.45634422056846       -1.10127383595422        1.99600321634645
C            4.45676601884917       -0.27573825298876        1.52073838965221
C            4.80097472164975        0.69722656130250        0.59265648586309
C            2.10749668629843        3.08838042165398        0.38241655791181
C            0.73948282313710        3.26469170664612        0.53944072340489
C           -0.08402791246900        2.15775901371933        0.44289332767425
N           -1.45319066303457        2.06015580928193        0.58409122325330
C           -2.32304304419148        3.12833540297137        0.78858663403233
C           -3.30620700833942        3.06420307005980        1.79653384823998
C           -4.15204677574113        4.12242808821323        2.00372962802004
C           -4.04063490845863        5.27331639444606        1.21547790651448
S           -5.24063044886266        6.55552076066574        1.37094869231879
O           -5.72576540725488        6.59740790946837        2.74258685482338
O           -4.69207780860228        7.79310794481124        0.83673979870167
C           -6.56784477205300        6.01240746811280        0.31385694178262
C           -6.54229828615444        6.33537068260849       -1.03640179112086
C           -7.50695936159290        5.81522940956155       -1.87711737974207
C           -8.48523373529429        4.96547688617112       -1.37367265980838
C           -8.50034582477690        4.64285674646560       -0.02166575203485
C           -7.53914840367183        5.16111711680368        0.82412540470176
C           -3.07864901222277        5.34086946313899        0.20212373278716
C           -2.22214979453631        4.29025334417491       -0.00240890084928
H            0.26380335135860       -9.19275486647396        0.67059142365025
H            0.67760341591598       -9.95938796586355        2.19946922007051
H           -0.94011513496604       -9.30924169694096        1.96839312430794
H            2.27023339216509       -7.65051032732033        0.94485518124608
H            2.52021239465198       -6.78519164762397        2.45998378525765
H            2.63279708449769       -8.54224581285036        2.42529798571531
H            0.86401437031649       -8.68422989665871        4.27998430961226
H           -0.69693287723031       -7.89000518661836        4.05379208231362
H            0.75682515535142       -6.92600801639245        4.30499910158822
H            0.99728286932259       -5.20238939679904        2.86699311744255
H           -0.08661527386208       -3.21273310009379        1.98413723662255
H           -1.48112673612586       -7.73006590287482        0.45080369222186
H           -3.42907559162323       -7.38975066565995       -1.31495170442652
H           -7.56818684762459       -7.14356031997810       -3.38621883720729
H           -7.11462370679016       -6.65531524111251       -1.75080442042320
H           -7.20087199555628       -5.45673514998854       -3.04005633640586
H           -4.15466227820801       -8.50649738090181       -3.13616594953009
H           -5.36259093918074       -8.49941038903102       -1.83667479594026
H           -5.84271601235727       -8.84731122572935       -3.49332987271415
H           -5.43301863700554       -5.45193940647104       -4.88561401348609
H           -4.14072062523493       -6.65006397670938       -4.86269314847633
H           -5.79500062763092       -7.13840082809079       -5.24284278963575
H           -5.45508602265302       -4.06417766920948       -3.10564981407802
H           -4.11395783105919       -2.49377214386292       -1.82673197078289
H           -4.13027364642819       -1.70317170318649        0.38951891407883
H           -3.96089412189692        0.74285556725471        0.64274363817142
H            0.12280615434383       -2.03849003849837       -0.07337610477221
H            2.24673439704537       -0.27877122791524       -0.16442853276067
H            3.53028871510702        3.85772425306112       -1.76320872140363
H            5.33551840835076        4.92312168704161       -2.99453058725101
H            9.41574186191465        2.75800971911488       -3.15016974129702
H            9.67263748646111        3.87110740605202       -1.79249451195677
H           10.09709556797339        4.35548478199625       -3.42976818208567
H            8.41121009847739        4.75930039720691       -5.14190341251701
H            7.58122783025917        3.22894225673205       -4.84389036930219
H            6.68809697232343        4.74697196761363       -4.77793051019385
H            7.06125181202496        6.35546646445637       -2.82790762740277
H            8.23458909308716        5.95347939274580       -1.57582874953078
H            8.78310525462612        6.39168051222421       -3.19616139320734
H            8.19628196205042        2.20171640094367       -1.32615436615309
H            8.14874600238965        0.16200402984602        0.37079103236473
H            7.34264416661826       -3.51911531421917        0.74653602301154
H            8.14344248808532       -4.09321630804531        2.21200560696706
H            6.44153277388055       -3.64347443873174        2.25632714965721
H            8.14777300429409       -0.75327883242425        3.94482274080319
H            8.61855014517572       -2.44622476949481        4.11994992439405
H            6.91567832755693       -1.99563206826930        4.15369281261691
H            9.91329894800824       -2.44342260051601        2.04154031739141
H            9.24488516915695       -1.84247923056307        0.52880507832835
H            9.58946683068073       -0.72417718628157        1.86211643193983
H            5.18296130824391       -1.85746284610227        2.71536855117203
H            3.44357112170856       -0.37854449977174        1.87768424239376
H            2.77323176033053        3.92828815174750        0.49760189292118
H            0.33969929535527        4.24121140081374        0.76483940946068
H           -3.35837192297253        2.19101237905846        2.42888529242092
H           -4.89344722415616        4.10986471571708        2.78712700978041
H           -5.77531740225050        7.00600873736167       -1.39213300588405
H           -7.50064080725440        6.07073569363992       -2.92639332263843
H           -9.23772149748305        4.55993938187365       -2.03276278818124
H           -9.26458510888411        3.98772361456488        0.36960281109079
H           -7.52956436094283        4.94218112035659        1.88079463972292
H           -3.02629994196726        6.23960796968748       -0.39216459091105
H           -1.48864959961052        4.32895227141042       -0.79330676678729
