133
 energy: -189.566681946248 gnorm: 0.000117649273 xtb: 6.7.1 (edcfbbe)
C           -0.10322194318559       -9.12526049861454        1.89594313365966
C            0.38910908524859       -7.78105609084390        2.44141016853940
C            1.90824670882101       -7.70948035090121        2.22445931249865
C            0.07589915766848       -7.73401905273195        3.94460242259072
C           -0.27202620651335       -6.59306127977466        1.75491333124484
C            0.09575265976168       -5.29697082043953        2.14293765776428
C           -0.44318934466128       -4.16131302294822        1.57384249681104
C           -1.38566040436070       -4.32005090829364        0.56912456047303
C           -1.79219511266655       -5.61276538037000        0.17595632146249
C           -1.23180730444706       -6.73860706659216        0.76675765924347
C           -2.79633386732281       -5.43260823454841       -0.83623670911054
C           -3.54334655328694       -6.32131865295119       -1.59959381439674
C           -4.44229514493378       -5.83874959992494       -2.53656920078407
C           -5.29931625273830       -6.75296606962456       -3.40212913979440
C           -6.78220486724416       -6.45311460509724       -3.13580454630308
C           -5.05600530585015       -8.23719919752095       -3.11126392967249
C           -4.97546431396459       -6.49962957477000       -4.88221273203999
C           -4.55873216784101       -4.45078167476704       -2.69691558027887
C           -3.83031100013745       -3.54491183729255       -1.95332311699993
C           -2.95186931559995       -4.03971806294904       -1.00116186958300
N           -2.09497434948795       -3.37531407046563       -0.14619912923225
C           -1.96275853099415       -1.98419472075003       -0.02103586478602
C           -3.10545349230865       -1.19391255567356        0.15748797604734
C           -3.02108592882817        0.17717159512530        0.29145769213497
C           -1.76139770493489        0.75986012490447        0.27349294948791
C           -0.60397678140475       -0.02644940657016        0.07433858142395
C           -0.70466659468436       -1.40115780430327       -0.07748190367666
C            0.50947665470036        0.88116495350483        0.05664256328388
C            1.87716839169192        0.69502839348813       -0.07915325668924
C            2.70745187410212        1.80439411898176       -0.00597338463126
N            4.09726765819500        1.64886644092109       -0.12032978458269
C            4.93088442516667        2.37056826674789       -0.95164814524285
C            4.63529529930199        3.35114139683352       -1.88665435240728
C            5.67788026422680        3.89379863267165       -2.60980169006781
C            7.01110497902582        3.49226356011509       -2.44540138688211
C            8.08994854754227        4.16084467459012       -3.28705475150162
C            9.49096958640230        3.61879256850654       -2.98683574437127
C            7.79496193119016        3.91763127561564       -4.77477414815939
C            8.09240725291145        5.66941187675457       -2.99708130709462
C            7.29089765785831        2.49509867209923       -1.52557308514982
C            6.26115953919790        1.93105207409409       -0.78281978625130
C            6.22340619872774        0.89204253464784        0.20902836533874
C            7.20739787100818        0.10578925089646        0.79564227218041
C            6.86161912019328       -0.82308421746654        1.76323528404120
C            7.88591399862081       -1.72016022377467        2.44551203844240
C            7.52670082027620       -3.18973728444678        2.17943156963560
C            7.87034322954762       -1.44627722646668        3.95701776034025
C            9.31050292266653       -1.48053869934114        1.93572637828419
C            5.51366380443361       -0.93071552089926        2.13348560300870
C            4.51582202791939       -0.16232974140408        1.56925441186796
C            4.87120810488007        0.74872028046312        0.58594954745872
C            2.17093937829176        3.08146472482734        0.20399304327368
C            0.81060778458828        3.28323429360428        0.32058378391210
C           -0.02453806905849        2.17771856872605        0.23377666507776
N           -1.39946860938471        2.09238035764940        0.36440077678767
C           -2.27388907592844        3.16370059275283        0.55943207287561
C           -3.23789950348590        3.10506247771595        1.56853359449756
C           -4.10820339732308        4.16174324072947        1.75417179299248
C           -4.00935687654892        5.27629863101861        0.94097557380374
S           -5.16885075498878        6.62423045244203        1.18644454268322
O           -5.18427089136835        6.97461684679415        2.59152277030777
O           -4.84641084005728        7.68306738257160        0.25273308251413
C           -6.75979359050612        5.91641947166973        0.74814207794319
C           -6.99171416013837        5.58727338696640       -0.57416658024598
C           -8.20379621743629        5.01418567261771       -0.92221368567165
C           -9.16142008069241        4.77694704793502        0.05295648221336
C           -8.91575508725783        5.11125021758250        1.37569555349030
C           -7.70423188074672        5.68466877206275        1.72866795778127
C           -3.05877026039618        5.35120637320006       -0.05926089326913
C           -2.18892245315549        4.29452389620652       -0.25411545973318
H            0.10941969355922       -9.21744760770734        0.83309742744463
H            0.40844920386345       -9.93525722070560        2.41251981856195
H           -1.17191995058182       -9.24642620457355        2.05847434616359
H            2.13676211424475       -7.72191002590120        1.16028522433551
H            2.32955940585973       -6.80366561389318        2.65178943782106
H            2.39442009672159       -8.56355323469905        2.69195178766359
H            0.52699343328917       -8.58657793766019        4.44861289047818
H           -1.00008004077446       -7.76727415049411        4.10560687516051
H            0.46002133290061       -6.82627345547765        4.40204273344912
H            0.83058325624495       -5.16749095070538        2.92320243969075
H           -0.14159657379349       -3.18115726406388        1.91252548998622
H           -1.56374935015180       -7.71043331993777        0.44116580113102
H           -3.40064464553306       -7.37802968867304       -1.44576848763307
H           -7.41126731275260       -7.11110243912397       -3.73218375871205
H           -7.01472678243722       -6.61235330754822       -2.08440893036585
H           -7.03067772717542       -5.42568032339881       -3.38738332568729
H           -4.02296688023879       -8.51150000989657       -3.31349042196042
H           -5.29355057977147       -8.47741268462602       -2.07725926278172
H           -5.69521146219692       -8.84194810637283       -3.75189661245979
H           -5.19397645148319       -5.47422546200068       -5.16765512308996
H           -3.92072052775089       -6.68863628152951       -5.07364467040706
H           -5.56509916108983       -7.16132158841205       -5.51377749879028
H           -5.24294420471705       -4.05986534398202       -3.43484275022269
H           -3.93821239523068       -2.48376194260912       -2.12153685892047
H           -4.06963887095661       -1.67728978528190        0.19804068876666
H           -3.91441641362871        0.77081223448630        0.40557939648598
H            0.17155988314934       -2.00626840584668       -0.25044272266302
H            2.28996932968026       -0.28848209826074       -0.24051098155305
H            3.62029024703895        3.67858883485801       -2.05618673464545
H            5.44202442593118        4.65890042140200       -3.33409688965658
H            9.55518253010269        2.55574091632619       -3.20823703408483
H            9.75947347165914        3.78395961173472       -1.94572323724802
H           10.22015756518113        4.13566895299010       -3.60795609296961
H            8.56871627580792        4.37300791420356       -5.38986680864420
H            7.77157013762076        2.84958599563490       -4.98337975182429
H            6.83728685236108        4.34141102262918       -5.06454768517313
H            7.14172231065501        6.12597002002894       -3.25873626094325
H            8.27637186466861        5.84824773795875       -1.93922896961829
H            8.87520132761313        6.16072331184019       -3.57166846255076
H            8.29458668372224        2.13618121197132       -1.36941559822615
H            8.22939885507381        0.24213189945497        0.48338832985207
H            7.51942308019961       -3.38686977762035        1.10897181110955
H            8.25908662832354       -3.84542865725619        2.64632422536202
H            6.54632265610163       -3.43733946456891        2.57715559834015
H            8.10007879846452       -0.40016584179386        4.15130573988538
H            8.61484492280807       -2.06239720725358        4.45745342426545
H            6.89911678947461       -1.66712731580317        4.39129084346916
H            9.99772956929977       -2.14687362192987        2.45383878410149
H            9.38426876978002       -1.68458395884193        0.86979866719336
H            9.62749628979958       -0.45762257754464        2.12665779551853
H            5.23014440515105       -1.64065368085475        2.89585133274737
H            3.49205178937288       -0.26522703613507        1.89730889727929
H            2.84568486566784        3.91948775546447        0.29121670412603
H            0.41875575322339        4.27213922430425        0.50051987960667
H           -3.28568859389232        2.24066922350371        2.21221511581627
H           -4.85035619092489        4.14290202846566        2.53635231819290
H           -6.23052522090373        5.79414539547616       -1.31002237883485
H           -8.40073548286144        4.75473767956477       -1.95114589560881
H          -10.10564655930695        4.33061282497669       -0.22062378430859
H           -9.66437193188442        4.92855377632007        2.13137022737881
H           -7.47711272822012        5.96501081173348        2.74574989608147
H           -3.01807191662902        6.23877046738132       -0.67134061798110
H           -1.45515135723111        4.33174061645511       -1.04417915986567
