  94
       -137.54610916
 C         -2.6805882504        1.9973391390       -0.3730515228
 C         -3.2178540725        0.7794674723       -0.1960177265
 C         -4.6279425850        0.4581990778       -0.1593515972
 C         -5.6439295395        1.3975919592       -0.3667921775
 C         -6.9716199034        1.0426665529       -0.2975802024
 C         -7.3455095296       -0.2727375347       -0.0124833068
 N         -8.6929911703       -0.6260046440        0.0747769962
 C         -9.1214284386       -1.8825820048       -0.3687755336
 C        -10.1158104963       -2.5749522980        0.3217956646
 C        -10.5399908993       -3.8115332275       -0.1237964108
 C         -9.9780634921       -4.3810651058       -1.2545969356
 C         -8.9870123927       -3.6993384334       -1.9416874025
 C         -8.5617288796       -2.4585377218       -1.5090173192
 C         -9.6178763136        0.2722261931        0.6207476335
 C         -9.2662076343        1.0799893457        1.7020199404
 C        -10.1815880528        1.9662164389        2.2351413113
 C        -11.4598755479        2.0566541365        1.7090450725
 C        -11.8157079786        1.2531309840        0.6382408829
 C        -10.9048124403        0.3698613407        0.0923844229
 C         -6.3416021120       -1.2224551699        0.1855703093
 C         -5.0160201478       -0.8596808754        0.1096215035
 C         -1.2706158232        2.3262239026       -0.3708932339
 C         -0.2516464936        1.3745591492       -0.2612650992
 C          1.0721364598        1.7533145549       -0.2265157849
 C          1.4406367047        3.0965323157       -0.3064936036
 C          2.8531750167        3.4847228032       -0.2401321195
 C          3.3708325491        4.4851511510       -1.0597863875
 C          4.7097963256        4.8186730884       -1.0076870858
 C          5.5778928151        4.1562548450       -0.1422378988
 C          7.0055438312        4.4752044843       -0.1282890310
 C          7.9854046547        3.5713084963       -0.0446302211
 C          7.7746421640        2.1247159312       -0.0621640032
 C          6.8797917428        1.5431489506       -0.9621136871
 C          6.6196603934        0.1924507938       -0.9282526807
 C          7.2416767062       -0.6251470387        0.0172625574
 N          6.9127150396       -1.9823563868        0.0964157058
 C          5.5836235347       -2.3776392088       -0.0932359740
 C          4.5354859775       -1.5789706020        0.3660696494
 C          3.2256544136       -1.9709719988        0.1721767311
 C          2.9360688207       -3.1612539042       -0.4745657987
 C          3.9726560411       -3.9589571970       -0.9301726608
 C          5.2862472543       -3.5734131587       -0.7465449992
 C          7.8992923248       -2.9312008516        0.3811252372
 C          9.1902641905       -2.7799135623       -0.1251213776
 C         10.1648412983       -3.7154505684        0.1620390829
 C          9.8706232318       -4.8178374979        0.9476077908
 C          8.5892795673       -4.9747018132        1.4503027401
 C          7.6100499885       -4.0400975508        1.1765280263
 C          8.1813198574       -0.0608260181        0.8791553002
 C          8.4507596015        1.2917421364        0.8269900818
 C          5.0480618248        3.1908777207        0.7151639423
 C          3.7131158608        2.8567889869        0.6613894365
 C          0.4317781431        4.0485905450       -0.4411482174
 C         -0.8926562528        3.6698450006       -0.4701565897
 H         -3.3340313634        2.8485964820       -0.5130653625
 H         -2.5651585794       -0.0703095423       -0.0436232100
 H         -5.3933990291        2.4216956111       -0.5957784242
 H         -7.7386632694        1.7842107021       -0.4682543461
 H        -10.5487821102       -2.1372378570        1.2094238769
 H        -11.3096529337       -4.3378878741        0.4214492083
 H        -10.3101043850       -5.3490103129       -1.5979521274
 H         -8.5470135182       -4.1331759777       -2.8276401138
 H         -7.7966056942       -1.9238700926       -2.0526169664
 H         -8.2735301246        1.0035778243        2.1210643173
 H         -9.8967827848        2.5843624892        3.0738524176
 H        -12.1735656324        2.7479725190        2.1307440614
 H        -12.8086077431        1.3201373783        0.2184519341
 H        -11.1818272377       -0.2489524174       -0.7485578126
 H         -6.6132610578       -2.2439136046        0.4091470940
 H         -4.2551246542       -1.6093101073        0.2763504634
 H         -0.4980263055        0.3250826419       -0.2051670936
 H          1.8438412022        0.9996803246       -0.1589197851
 H          2.7218205410        4.9864751482       -1.7634215789
 H          5.0987422182        5.5833517275       -1.6655599814
 H          7.2545169307        5.5275869383       -0.1870343619
 H          9.0126049907        3.9031454007        0.0431812387
 H          6.3909804739        2.1624307613       -1.6989446450
 H          5.9227100193       -0.2433762424       -1.6290049110
 H          4.7575000443       -0.6527495331        0.8758821822
 H          2.4227546902       -1.3483141192        0.5395061105
 H          1.9108102481       -3.4647569401       -0.6225528515
 H          3.7573674548       -4.8863510930       -1.4403415613
 H          6.0920548109       -4.1934009937       -1.1115280976
 H          9.4194773843       -1.9268024127       -0.7469365309
 H         11.1597785032       -3.5868097839       -0.2384234579
 H         10.6339039495       -5.5489476427        1.1667034832
 H          8.3518222494       -5.8279617129        2.0687011127
 H          6.6148661449       -4.1596094659        1.5793253265
 H          8.6858407315       -0.6869174253        1.6006560505
 H          9.1653045319        1.7187584347        1.5163341188
 H          5.6949285640        2.7077786476        1.4324110810
 H          3.3195858419        2.1144416152        1.3404374335
 H          0.6916777229        5.0959584555       -0.4966560598
 H         -1.6599042482        4.4264916440       -0.5617679871
