  46
  -77.6407263700000       0.507306315276445      !
 O          1.4681979222        0.2291856709        2.4375373213
 C          0.4585919250        0.3706237392        1.7891313010
 C          0.0671944612        1.5905376597        1.0377698105
 C          0.8834721404        2.6887119075        0.8121756661
 C          0.3991861721        3.7198578838        0.0212383303
 C         -0.8730653316        3.6580509420       -0.5295923887
 C         -1.7039123774        2.5703919757       -0.2818155287
 C         -1.2108343082        1.5545547267        0.5030082137
 S         -1.9885457465        0.0696256745        1.0920516863
 O         -2.7805181358        0.3339103460        2.2575518658
 O         -2.5831925688       -0.7499014502        0.0869879054
 N         -0.4992084936       -0.5871197232        1.6034670702
 C         -0.4196098685       -1.9035911219        2.1971664783
 C         -0.6649346771       -2.9998713394        1.1583658378
 C          0.4874820568       -3.1798450662        0.1570515262
 N          0.7748380179       -1.9906476913       -0.5959279438
 C          1.8360789607       -1.1378272988       -0.3883041249
 C          2.9613886309       -1.2900796479        0.4102570868
 C          3.8974347232       -0.2764195305        0.4134762590
 C          3.7367617897        0.8670148547       -0.3664648751
 C          2.6282993591        1.0233781697       -1.1718554030
 C          1.6682596023        0.0194034334       -1.1847705795
 C          0.4344026637       -0.1510843303       -1.8953523043
 C         -0.2610959685        0.6379630779       -2.8027082164
 C         -1.4367719562        0.1500150057       -3.3337028070
 C         -1.9102648598       -1.1129687591       -2.9845723314
 C         -1.2420208541       -1.9097256712       -2.0775340530
 C         -0.0754062291       -1.4130872791       -1.5138415415
 H          1.8733086344        2.7114220235        1.2407835021
 H          1.0224897576        4.5802233611       -0.1720130755
 H         -1.2283465911        4.4657323852       -1.1517905096
 H         -2.6995620522        2.5127368250       -0.6920864984
 H         -1.1788549348       -1.9706907102        2.9847586826
 H          0.5734844985       -1.9883878918        2.6504413488
 H         -1.5810191837       -2.7557035342        0.6199387948
 H         -0.8112141270       -3.9455633014        1.6834307180
 H          0.2255148460       -3.9872671659       -0.5371171279
 H          1.3963248786       -3.4711955897        0.6887909507
 H          3.1094067423       -2.1650145392        1.0248787777
 H          4.7747703230       -0.3719858577        1.0350928008
 H          4.4948872225        1.6357663275       -0.3389451421
 H          2.5028256035        1.9035203753       -1.7854742152
 H          0.1196304118        1.6089828332       -3.0846494256
 H         -1.9953095706        0.7470758783       -4.0394926654
 H         -2.8244581769       -1.4751017618       -3.4300235085
 H         -1.6265191523       -2.8831397795       -1.8167849454
  46
  -77.6406987500000       0.492693684723555      !
 O          1.2865243116       -0.0447489759        3.0242147574
 C          0.4449919901        0.2403823000        2.2037570247
 C          0.3219935452        1.5359202724        1.4892205886
 C          1.2493066127        2.5660314768        1.5289733932
 C          1.0221670184        3.6918726935        0.7503259259
 C         -0.1018329384        3.7840411071       -0.0562678730
 C         -1.0440299567        2.7601508010       -0.0839775373
 C         -0.8103769144        1.6539437997        0.6977221808
 S         -1.8122451281        0.2135849525        0.9785383449
 O         -2.8330793774        0.4779228513        1.9486729678
 O         -2.2053312628       -0.4915294989       -0.1969580405
 N         -0.5378304723       -0.6008315766        1.7664170140
 C         -0.6918297674       -1.9478501724        2.2655125892
 C         -0.7586145911       -2.9676009934        1.1282069285
 C          0.5217949204       -3.0394188572        0.2797828974
 N          0.6727776746       -1.9170778920       -0.6056265591
 C          1.5547753620       -0.8707104308       -0.4681120421
 C          2.6146949109       -0.7050543792        0.4131989308
 C          3.3808770878        0.4386623564        0.3017012191
 C          3.1066671298        1.4088509171       -0.6591359459
 C          2.0622224883        1.2488111037       -1.5475265551
 C          1.2840107241        0.1026471152       -1.4615936656
 C          0.1868675809       -0.4014737265       -2.2358337101
 C         -0.5113384277        0.0878972904       -3.3316576237
 C         -1.5187500198       -0.6850555877       -3.8699222723
 C         -1.8262050081       -1.9329753546       -3.3339365686
 C         -1.1509871280       -2.4363134000       -2.2401739976
 C         -0.1493369767       -1.6562622315       -1.6812769371
 H          2.1214744635        2.4728910993        2.1570797374
 H          1.7339497016        4.5035040733        0.7683744218
 H         -0.2554521978        4.6624493836       -0.6647355730
 H         -1.9292894065        2.8210120176       -0.6973057939
 H         -1.6152218259       -1.9950491925        2.8539363719
 H          0.1613491565       -2.1396357193        2.9250497874
 H         -1.5982168247       -2.7098101106        0.4814465786
 H         -0.9429720932       -3.9497687142        1.5679095643
 H          0.4935785003       -3.9561759848       -0.3218106815
 H          1.3980608512       -3.0871280976        0.9305424991
 H          2.8484642828       -1.4396455005        1.1684343334
 H          4.2119688388        0.5801817623        0.9760827690
 H          3.7305240901        2.2884422515       -0.7163242882
 H          1.8578920971        1.9910837123       -2.3047553906
 H         -0.2629213940        1.0517743770       -3.7512064835
 H         -2.0773102727       -0.3239419628       -4.7208956198
 H         -2.6142186328       -2.5197161735       -3.7827939130
 H         -1.4045741923       -3.4056563364       -1.8385109456
