  112
       -165.58657651
 C         -6.0486496211        6.2892656472        0.1816474138
 C         -4.7398788281        5.4984434937        0.0438066970
 C         -3.8348696608        5.7715680357        1.2537739021
 C         -4.0167124928        5.9864421720       -1.2144227056
 C         -5.0605903852        4.0134966776       -0.0039497247
 C         -4.7166747985        3.1997946616       -1.0767511815
 C         -5.0166650963        1.8489567578       -1.0812981487
 C         -5.6736143127        1.2787851035       -0.0011466685
 N         -5.9412300341       -0.1041036401        0.0130690586
 C         -4.9886341730       -1.0977759770        0.0569368457
 C         -3.5527842903       -0.8924086426        0.1240794836
 C         -2.7307671036       -1.8800900097       -0.4239258255
 C         -1.3593980016       -1.7605978030       -0.3785080011
 C         -0.7599050048       -0.6557511495        0.2263360846
 C          0.7021772885       -0.5335640092        0.2856143213
 C          1.3286129792       -0.0681749031        1.4408593513
 C          2.7038967509        0.0317308741        1.5083093628
 C          3.4824740509       -0.3218205459        0.4115582659
 N          4.8983888118       -0.2439569190        0.4520950300
 C          5.5353848998        0.9877291727        0.4564657997
 C          4.8151208409        2.1761779675        0.5810937956
 C          5.4701589803        3.3895507889        0.6535085518
 C          6.8521545970        3.4389480444        0.6140146996
 C          7.5698264102        2.2673672196        0.4435689052
 C          6.9300918827        1.0426658079        0.3403229219
 C          7.6818762264       -0.2218553264       -0.0339928517
 C          9.1282898513       -0.1426819627        0.4177130156
 C          9.3837808672        0.1006974163        1.7647506627
 C         10.6799832226        0.1658178630        2.2374509412
 C         11.7453151135       -0.0164361455        1.3700645810
 C         11.5002268943       -0.2680851810        0.0324654462
 C         10.1998905867       -0.3331796798       -0.4419648339
 C          7.5676517336       -0.3627930387       -1.5541961441
 C          7.2109019671       -1.5637139931       -2.1533214419
 C          7.1079702224       -1.6628037093       -3.5308139033
 C          7.3628935952       -0.5652496255       -4.3328992623
 C          7.7256248272        0.6348510659       -3.7450097302
 C          7.8248926653        0.7344745838       -2.3697139420
 C          7.0061374833       -1.4023019002        0.6321368122
 C          7.7146654843       -2.5302666424        1.0142063902
 C          7.0658611755       -3.6471860985        1.5123059931
 C          5.6860129689       -3.6426463588        1.6212826285
 C          4.9637763977       -2.5223076833        1.2610502055
 C          5.6138824703       -1.3890185862        0.7707135037
 C          2.8688279182       -0.7852288965       -0.7451511665
 C          1.4931470246       -0.8925912681       -0.8043964846
 C         -1.5819278037        0.3173750116        0.7903395029
 C         -2.9566850915        0.2051167188        0.7438922770
 N         -5.5274485542       -2.2940915074        0.0448544789
 C         -6.8694074388       -2.1017354434       -0.0015643829
 C         -7.8939265652       -3.0892955176        0.0039330711
 C         -7.5857163970       -4.4521228255        0.0661012086
 C         -8.5883484078       -5.3888960204        0.0964030803
 C         -9.9168968826       -4.9695693349        0.0682002033
 C        -10.2310016946       -3.6320905125        0.0030332381
 C         -9.2348879433       -2.6443634994       -0.0373699179
 C         -9.5336369427       -1.2258520105       -0.1367374288
 C        -10.8513765455       -0.7583510268       -0.2397775776
 C        -11.1438513608        0.5782295893       -0.3749358820
 C        -10.1170832605        1.5150730431       -0.4296943943
 C         -8.8123605660        1.1003328625       -0.3236814353
 C         -8.4941614782       -0.2551728278       -0.1575299010
 C         -7.1608019571       -0.7381898606       -0.0350417937
 C         -6.0279664501        2.0767912934        1.0820751453
 C         -5.7244734936        3.4226070126        1.0706096990
 H         -5.8401408600        7.3566764366        0.1990197955
 H         -6.5756350565        6.0319958321        1.0961709579
 H         -6.7047324577        6.0800234794       -0.6608160507
 H         -3.5744550352        6.8267173194        1.2950996554
 H         -2.9166754056        5.1930785798        1.1758200772
 H         -4.3263504471        5.5072906997        2.1858539281
 H         -4.6282257503        5.8366660559       -2.1012922980
 H         -3.0660576174        5.4741869118       -1.3444090100
 H         -3.8132668653        7.0514745120       -1.1242421254
 H         -4.2055320847        3.6064730108       -1.9331223399
 H         -4.7368258039        1.2300265095       -1.9210345763
 H         -3.1972300140       -2.7403919017       -0.8778259410
 H         -0.7394800813       -2.5416976885       -0.7937381580
 H          0.7321174522        0.1896879607        2.3035802931
 H          3.1846153369        0.3747114027        2.4132556141
 H          3.7372511771        2.1493161723        0.6164100408
 H          4.8952630034        4.2987722988        0.7491014212
 H          7.3690529327        4.3834838765        0.6885857248
 H          8.6472366273        2.3084135299        0.3785026253
 H          8.5536275716        0.2401657271        2.4423558685
 H         10.8614022431        0.3577900034        3.2849529173
 H         12.7595977024        0.0341438140        1.7373867318
 H         12.3244459945       -0.4181263111       -0.6497072082
 H         10.0245286456       -0.5377908104       -1.4872948200
 H          7.0137320444       -2.4344602551       -1.5469476801
 H          6.8280950404       -2.6062989725       -3.9770963279
 H          7.2820714210       -0.6438430320       -5.4069763023
 H          7.9324395939        1.4986336970       -4.3601518789
 H          8.1077691703        1.6762578083       -1.9252130451
 H          8.7882185060       -2.5421595039        0.9009013629
 H          7.6341006055       -4.5190336548        1.7981322797
 H          5.1664717060       -4.5123616730        1.9951625451
 H          3.8892285369       -2.5210144831        1.3616442621
 H          3.4813085045       -1.0603585546       -1.5913167728
 H          1.0230062665       -1.2397396452       -1.7124429506
 H         -1.1380028282        1.1828341448        1.2608519200
 H         -3.5606911333        0.9660229253        1.2118385736
 H         -6.5442450891       -4.7324261978        0.0943962523
 H         -8.3550601326       -6.4421454191        0.1451892246
 H        -10.7101428961       -5.7025323880        0.0977946951
 H        -11.2733026865       -3.3559583268       -0.0143133987
 H        -11.6712266708       -1.4579424442       -0.2212807735
 H        -12.1721185332        0.8997042033       -0.4503935689
 H        -10.3431338108        2.5633243771       -0.5580668121
 H         -8.0190747145        1.8280638625       -0.3824522162
 H         -6.5400161353        1.6349439644        1.9247378572
 H         -6.0093643478        4.0175575031        1.9245270586
