80
 energy: -122.186301171663 gnorm: 0.000058826175 xtb: 6.7.1 (edcfbbe)
C            7.25296626011336       -2.95599596715742       -0.40660461792183
C            6.27320112617851       -3.08383185188023       -1.37666234673003
C            5.10618923965093       -2.34832753696399       -1.28666914465649
C            4.90481871134012       -1.46461260532270       -0.22905099609152
C            3.65822997442592       -0.68956319959367       -0.13558241599951
C            2.44274383630451       -1.35529365010359       -0.29220838002834
C            1.22471284127304       -0.70182428065141       -0.17471540727916
N            0.05446919364013       -1.30425893009263       -0.39147190674058
C           -1.10704679743248       -0.66806196715130       -0.21975339168501
N           -2.28097412938562       -1.37678712349040       -0.46610146537877
C           -2.34613286863523       -2.70814657618995       -0.03922167078681
C           -1.67416761354393       -3.11528299625117        1.11237886103413
C           -1.71845310900201       -4.43491617496066        1.51722307596621
C           -2.43156080093481       -5.37064407818570        0.78738319745119
C           -3.08848047242118       -4.97491452490177       -0.36646539653258
C           -3.04524105844960       -3.65945082062298       -0.78306888596536
C           -3.29130845456056       -0.80690528863663       -1.24467038807899
C           -4.63175382852525       -1.11692387377085       -1.00886243210959
C           -5.62210626197938       -0.52617406779409       -1.76674808556510
C           -5.30028453407789        0.39181201273852       -2.75468240219474
C           -3.97198528294468        0.70243421693636       -2.99270388063721
C           -2.97283185837765        0.10173980772916       -2.25229719503538
C           -1.10624611956332        0.66985909783662        0.21777665113205
N           -2.27937136741557        1.38035009473023        0.46285020196818
C           -2.34232992855642        2.71172894218256        0.03579066016820
C           -1.66792352762644        3.11812415338466       -1.11465004919721
C           -1.71010052028050        4.43779611183532       -1.51959657613448
C           -2.42353908933240        5.37428799498008       -0.79107104737013
C           -3.08283948139226        4.97930815535412        0.36167733194997
C           -3.04169368488314        3.66381498311172        0.77840722275276
C           -3.29141797562708        0.81174631090834        1.24016674335148
C           -2.97524853407317       -0.09683127154781        2.24856969622242
C           -3.97603906591010       -0.69627415566156        2.98777569604575
C           -5.30369243887076       -0.38446069227160        2.74772553612619
C           -5.62321832305564        0.53345915813126        1.75899318289910
C           -4.63120884030537        1.12299661985904        1.00232453664890
N            0.05608503661515        1.30431878920047        0.39065790420106
C            1.22561980879900        0.70013111487767        0.17483262117149
C            2.44451646695524        1.35181053117574        0.29324994904005
C            3.65913942932904        0.68430692293676        0.13740478783092
C            4.90679721504599        1.45755020103026        0.23154183173485
C            5.10892901100447        2.34097388348648        1.28925676674892
C            6.27695973210243        3.07479766596287        1.37980899475370
C            7.25701018418968        2.94554197498252        0.41022476798147
C            7.05887535919013        2.08125254022598       -0.65403832736315
C            5.89452126281917        1.34308804603866       -0.74453908883770
C            5.89223412210374       -1.35157671487189        0.74750472998926
C            7.05556345735068       -2.09142491604427        0.65756356006981
H            8.16527832633794       -3.52986037587551       -0.47791166988088
H            6.42013224662529       -3.75850266649603       -2.20797665173950
H            4.34844921705078       -2.44007493459742       -2.05186580739790
H            2.42773898623509       -2.41827071871284       -0.47783630163966
H           -1.11367408706637       -2.39798608253621        1.69050519135961
H           -1.19374241212812       -4.73287806309605        2.41294753960199
H           -2.46845321117301       -6.40021814699043        1.10914436280767
H           -3.63092285150589       -5.69954292991252       -0.95580684374597
H           -3.53680946008759       -3.36697570679802       -1.69877868004723
H           -4.88674528047565       -1.80711329089496       -0.21884403681581
H           -6.65554373581752       -0.77306899425487       -1.57427679839335
H           -6.07999071553791        0.85994676029733       -3.33588879552872
H           -3.71010655418821        1.41071787078826       -3.76455971836474
H           -1.93550968600139        0.31863795615706       -2.45932695059104
H           -1.10721344888674        2.40023199369988       -1.69182216688039
H           -1.18355441331247        4.73515107417321       -2.41444919745107
H           -2.45877464503611        6.40389874364990       -1.11292192781275
H           -3.62560052063234        5.70451277858893        0.95002002202790
H           -3.53517581074419        3.37190429676837        1.69326288496967
H           -1.93842269614325       -0.31466125145463        2.45712270255991
H           -3.71596401200897       -1.40456556058991        3.76023427734326
H           -6.08468502225788       -0.85165878812929        3.32796356605404
H           -6.65614016527629        0.78128861598553        1.56495188552105
H           -4.88439301450644        1.81317104360944        0.21171138176625
H            2.43095536405172        2.41480599693043        0.47888337423662
H            4.35095817018898        2.43380868171376        2.05409203514117
H            6.42448699430451        3.74921786294789        2.21121945485648
H            8.17012186938645        3.51807443636261        0.48198077946267
H            7.81599376768110        1.98314056423382       -1.41851820357800
H            5.74023306185867        0.67907404130696       -1.58230421238420
H            5.73851666547542       -0.68731908714283        1.58518206759076
H            7.81246148911021       -1.99439587719032        1.42240123803236
