  80
       -122.17967756
 C          7.2520024083       -2.9581217835       -0.4703756893
 C          6.2696003025       -3.0666737246       -1.4403041052
 C          5.1036944035       -2.3319224598       -1.3337388250
 C          4.9058382763       -1.4673883775       -0.2593368354
 C          3.6609166190       -0.6933817275       -0.1474094228
 C          2.4436434936       -1.3547516113       -0.3175329588
 C          1.2256519264       -0.7025155128       -0.1842493165
 N          0.0569314228       -1.2986036434       -0.4193077711
 C         -1.1004803284       -0.6629580817       -0.2297848322
 N         -2.2809505801       -1.3500919252       -0.5136467194
 C         -2.3880589936       -2.6801477485       -0.0984868249
 C         -1.7260160918       -3.1173998893        1.0486849564
 C         -1.8164426673       -4.4358860988        1.4481447395
 C         -2.5650632192       -5.3426471057        0.7168333856
 C         -3.2075623560       -4.9193237144       -0.4353993711
 C         -3.1191322841       -3.6045397259       -0.8466097267
 C         -3.2517388118       -0.7435028816       -1.3134999998
 C         -4.6082549863       -1.0135987614       -1.1228273021
 C         -5.5554759755       -0.3810194236       -1.9020549863
 C         -5.1747932366        0.5386357565       -2.8672126135
 C         -3.8304555420        0.8093476590       -3.0610987925
 C         -2.8743771999        0.1682144262       -2.2986535843
 C         -1.0982907045        0.6604979589        0.2505987446
 N         -2.2749980099        1.3569052772        0.5221918732
 C         -2.3583108728        2.6964251321        0.1315186360
 C         -1.6790368591        3.1478953569       -0.9995850063
 C         -1.7437061823        4.4770051812       -1.3683088537
 C         -2.4843875533        5.3786290019       -0.6228166656
 C         -3.1480279715        4.9390891847        0.5113641200
 C         -3.0851639377        3.6138605006        0.8921650335
 C         -3.2777208950        0.7504088408        1.2823510964
 C         -2.9433768716       -0.1718286564        2.2727429819
 C         -3.9318659918       -0.8139204994        2.9919849266
 C         -5.2660300508       -0.5314366411        2.7502686194
 C         -5.6040587262        0.4023656181        1.7826964620
 C         -4.6238065270        1.0353393650        1.0457544337
 N          0.0618821292        1.2897665439        0.4444440266
 C          1.2285031967        0.6901027909        0.2060474345
 C          2.4488433372        1.3384845268        0.3343126935
 C          3.6637300601        0.6738270237        0.1574124727
 C          4.9112526634        1.4444416779        0.2610600341
 C          5.1153694414        2.3141060818        1.3302197640
 C          6.2834134098        3.0465433042        1.4287377975
 C          7.2622396803        2.9304024659        0.4560770773
 C          7.0623450362        2.0804365614       -0.6194238796
 C          5.8979502314        1.3436892016       -0.7181646178
 C          5.8960080750       -1.3741615456        0.7170075158
 C          7.0580558958       -2.1135191092        0.6104382271
 H          8.1634584481       -3.5315749764       -0.5547222454
 H          6.4142731088       -3.7255993930       -2.2846075587
 H          4.3439192863       -2.4083256549       -2.0985786067
 H          2.4266842804       -2.4139520268       -0.5232752050
 H         -1.1375328223       -2.4236083626        1.6272703125
 H         -1.3000485110       -4.7561359640        2.3409862855
 H         -2.6394991530       -6.3710240250        1.0355800852
 H         -3.7748557300       -5.6221069876       -1.0277099597
 H         -3.5978537317       -3.2932982486       -1.7628404686
 H         -4.9096874275       -1.7049767805       -0.3505347613
 H         -6.6017198782       -0.5969462462       -1.7446773977
 H         -5.9211634598        1.0385506440       -3.4653599249
 H         -3.5229250802        1.5183359153       -3.8152083501
 H         -1.8246548869        0.3538706870       -2.4709870162
 H         -1.0990878324        2.4566706395       -1.5898256761
 H         -1.2136320299        4.8098932921       -2.2483634298
 H         -2.5373135330        6.4157143780       -0.9169430331
 H         -3.7120052494        5.6368621003        1.1127462190
 H         -3.5812980499        3.2873619335        1.7937739426
 H         -1.9019754915       -0.3650773226        2.4827168287
 H         -3.6579599923       -1.5326142452        3.7497130168
 H         -6.0378789120       -1.0333263947        3.3134735630
 H         -6.6420662389        0.6284534516        1.5893508065
 H         -4.8903531777        1.7389240588        0.2715123872
 H          2.4360728131        2.3978505370        0.5395411274
 H          4.3586987565        2.3965771278        2.0974840226
 H          6.4321845697        3.7100018855        2.2687659170
 H          8.1754080350        3.5020552386        0.5341707292
 H          7.8182337449        1.9926748321       -1.3864394046
 H          5.7424065595        0.6916559198       -1.5650615589
 H          5.7448620209       -0.7257531860        1.5674902420
 H          7.8167457502       -2.0323158335        1.3753923409
