  75
       -117.09253192
 N         -0.2777213929        1.0491777406        1.2108060723
 C         -0.1514962869        0.0725571045        0.6011938529
 C         -0.0465095405       -1.1433502419       -0.0647676515
 C          1.2215042321       -1.8205068682       -0.3287792750
 C          2.5070442433       -1.2344382690       -0.2415954304
 C          2.7402817678        0.1539632339       -0.0808526852
 C          4.0109660209        0.6580193279       -0.0243511213
 C          5.1286582164       -0.1876511312       -0.1114946974
 N          6.4232930805        0.3310005260       -0.0429502311
 C          7.4033921010       -0.3608738144        0.6621159919
 C          7.0646074987       -1.0916849126        1.8053165358
 C          8.0339200114       -1.7909464640        2.4946284532
 C          9.3517954407       -1.7770538260        2.0627859362
 C          9.6937351893       -1.0566179472        0.9279698342
 C          8.7332137924       -0.3550469102        0.2286538694
 C          6.7156290227        1.5362482646       -0.6752990650
 C          6.0887264475        1.8674980449       -1.8805953033
 C          6.3678059320        3.0674888440       -2.5014861177
 C          7.2705565309        3.9570656403       -1.9379910806
 C          7.8928064650        3.6360739429       -0.7409326689
 C          7.6209221104        2.4393652862       -0.1096529574
 C          4.9164187786       -1.5692973514       -0.2779447516
 C          3.6510710832       -2.0734453401       -0.3456188460
 N          1.1539647295       -3.1283677435       -0.6680407265
 C          0.0257175909       -3.7319095383       -0.8368119656
 N         -1.1742058098       -3.1346412792       -0.7653236130
 C         -1.2087646456       -1.8638915258       -0.3798989703
 C         -2.5398542698       -1.2597403833       -0.2753641484
 C         -2.7755512353        0.0716644272       -0.6162622394
 C         -4.0363270821        0.6120434614       -0.4996261369
 C         -5.1025072315       -0.1637624492       -0.0364841843
 N         -6.3720987872        0.3914026937        0.1023362168
 C         -6.5152666875        1.7262761104        0.4968744397
 C         -5.6433919968        2.2847336171        1.4326283899
 C         -5.7909874972        3.6027312738        1.8177238504
 C         -6.8073579165        4.3803188085        1.2855861727
 C         -7.6770813827        3.8294156351        0.3581204716
 C         -7.5346634820        2.5141433734       -0.0388363045
 C         -7.5093259073       -0.3835812840       -0.1513203569
 C         -7.5147065208       -1.3069913980       -1.1975257343
 C         -8.6394625140       -2.0691897272       -1.4450070626
 C         -9.7736000229       -1.9206881288       -0.6625943599
 C         -9.7744154870       -1.0024822060        0.3752978721
 C         -8.6528514670       -0.2392926171        0.6349230914
 C         -4.8727982275       -1.5066365158        0.2775735233
 C         -3.6128989734       -2.0448195333        0.1490582531
 H          1.9064427860        0.8291376645       -0.0012463940
 H          4.1651735167        1.7184488119        0.1127732469
 H          6.0410830813       -1.0885291480        2.1487467247
 H          7.7603642132       -2.3454879100        3.3796490568
 H         10.1064278098       -2.3251459865        2.6051733313
 H         10.7159606937       -1.0488852026        0.5803920773
 H          8.9973266961        0.1888467882       -0.6663904512
 H          5.3961086520        1.1676095753       -2.3234857517
 H          5.8828311620        3.3080306568       -3.4356104086
 H          7.4860368759        4.8942157794       -2.4273064544
 H          8.5888139239        4.3280512794       -0.2908857017
 H          8.0896835826        2.2003162259        0.8336448771
 H          5.7719352182       -2.2220845972       -0.3770423722
 H          3.4838373522       -3.1290386437       -0.4921170446
 H          0.0342609889       -4.7834925518       -1.0844618264
 H         -1.9721638372        0.6816769968       -0.9969662532
 H         -4.2094867851        1.6406835948       -0.7768021590
 H         -4.8571403875        1.6778279685        1.8557735893
 H         -5.1113491382        4.0216914107        2.5444056527
 H         -6.9206476328        5.4087908588        1.5918364240
 H         -8.4673096187        4.4300266043       -0.0668991133
 H         -8.2046243494        2.0896669857       -0.7722228812
 H         -6.6352628605       -1.4130737951       -1.8153930248
 H         -8.6321129924       -2.7778936876       -2.2594924852
 H        -10.6508404718       -2.5171847550       -0.8600994045
 H        -10.6515564410       -0.8855845264        0.9939666140
 H         -8.6488876820        0.4661421159        1.4529310574
 H         -5.6884946813       -2.1160273898        0.6369293995
 H         -3.4329576011       -3.0789733536        0.3979398019
