112
 energy: -173.542388017881 gnorm: 0.000078399775 xtb: 6.7.1 (edcfbbe)
N          -12.59991049579288       -3.45291490749166        0.14629874794083
C          -11.51007290367952       -3.08040486813582        0.13213176870135
C          -10.18627145469700       -2.62502185571066        0.11244452622749
C           -9.13805093897230       -3.48266020966323       -0.27706967010440
C           -7.85159481152628       -3.02675470383753       -0.30335276360991
C           -7.53448028440477       -1.68659907007127        0.04095831752602
C           -6.17134435553758       -1.30890690583073       -0.02124491170549
N           -5.19339940741091       -2.21841896242168       -0.07902426627351
C           -4.04326782742764       -1.55812682114099       -0.04158827149227
C           -2.73076000716743       -2.09933171592807       -0.04717746747896
C           -2.52030305715339       -3.48238212902682       -0.06984110140353
C           -1.24726583743603       -3.99887105501918       -0.06211665847132
C           -0.14623539884251       -3.13733169456544       -0.04103571390957
C            1.21967339661082       -3.66051428547880       -0.04210159148505
C            1.55134411769371       -4.81453645021700        0.67121928610586
C            2.84113589632427       -5.29668523944145        0.68874280182557
C            3.85140723796972       -4.64679474082164       -0.02472083726849
N            5.15958873244288       -5.12798699895062       -0.00800503592387
C            5.40140937714249       -6.50646828380658        0.05098756044298
C            4.59024481411346       -7.39681375632739       -0.65213921542407
C            4.83275004576608       -8.75511778961870       -0.58920227197011
C            5.88625592409631       -9.24566519842185        0.16506027756124
C            6.69743747251517       -8.36461155321133        0.86160531768767
C            6.45901665076923       -7.00503933074622        0.81107560709033
C            6.23760940774426       -4.23599484206789       -0.05108980022246
C            6.17503954913723       -3.01657496896729        0.62366440071162
C            7.23959311611292       -2.13811926522924        0.57259869393114
C            8.38298176688024       -2.46170381576742       -0.13970823215326
C            8.45297849170159       -3.67455536005985       -0.80568639900110
C            7.39039530671802       -4.55615328444558       -0.76821404674082
C            3.52346704316545       -3.50212022756619       -0.75535552550847
C            2.23489534770312       -3.01787675139275       -0.75500606095246
C           -0.36191603262122       -1.75951589009980       -0.01925119479553
C           -1.63798765975947       -1.20136140304605       -0.01994361108147
C           -1.87135038273795        0.24046709050392       -0.01481833930657
C           -0.82462483379346        1.13823460763980        0.00389008904336
C           -0.99106449513917        2.53379228013145       -0.05488336291755
C            0.14850512595341        3.41501668289406       -0.02454173518157
C            1.34360180620500        3.04710577392054        0.62404384171381
C            2.43506859033717        3.87683481693266        0.64793734614992
C            2.39984093483335        5.12464267859314        0.01164313654783
N            3.51395934668050        5.95902038977830        0.01917128519137
C            3.35309738577337        7.34842759040068        0.06203206628762
C            4.20794542881430        8.18012955936993       -0.66227215608718
C            4.04693496028360        9.55080464915448       -0.61545177016648
C            3.03377719632925       10.11301775304997        0.14469722978576
C            2.18123600267850        9.29100209392618        0.86427225175449
C            2.33698325473171        7.91935852237946        0.82925823637720
C            4.80094941990496        5.41103057426231       -0.01222134116614
C            5.06722068443899        4.27314330202866       -0.77519286991073
C            6.33702991589767        3.73091600069671       -0.79404042008557
C            7.36026151162233        4.31411980827654       -0.06378591665998
C            7.10268894451448        5.44811067663737        0.68993539100996
C            5.83475000016250        5.99422177860544        0.72170330614840
C            1.21597275902403        5.50873468513204       -0.63217378698141
C            0.12265747114286        4.68015018263533       -0.64192547776598
C           -2.31407493868404        3.02406814241909       -0.16691661072591
C           -3.37718172071054        2.17788651934331       -0.15006417529929
C           -3.21634696254284        0.76653010429614       -0.04521327648859
C           -4.26652133121867       -0.14285880760537        0.00494955967475
N           -5.64017734786421       -0.00855971165882        0.02260786926534
C           -6.38168906702596        1.18424243349771        0.00149631698012
C           -7.17583073544832        1.48629004557299       -1.10204098488562
C           -7.91893821178267        2.65157574689064       -1.11391850709553
C           -7.87416230053874        3.51974242213066       -0.03465525993576
C           -7.08224344774642        3.22031430526326        1.06300583328247
C           -6.33686463708366        2.05669921746084        1.08735622945673
C           -8.59277716268175       -0.84736384463809        0.46385810268504
C           -9.88146963155349       -1.30667536610815        0.49696153061023
H           -9.36888346065144       -4.50094151217440       -0.55474058025054
H           -7.03952188139775       -3.67127970882978       -0.59934357422940
H           -3.38800251312331       -4.12281397876503       -0.09403985127804
H           -1.09328050447539       -5.06677285348093       -0.10023026812881
H            0.79205780809800       -5.31726714890123        1.25135860749816
H            3.08266383868577       -6.17572888662095        1.26810220102299
H            3.77604582516598       -7.01465047914149       -1.25028903617201
H            4.19956535950804       -9.43449469241222       -1.14032125774525
H            6.07411576653744      -10.30750546939683        0.20942984134447
H            7.51763000978325       -8.73903866283840        1.45604018968396
H            7.08592966577647       -6.31984692108644        1.36276210230534
H            5.29003786607515       -2.76825657507829        1.19097270655642
H            7.17888798180218       -1.19784246949264        1.10066530756975
H            9.21423660077220       -1.77414361013978       -0.17454633219245
H            9.33881187018394       -3.93324903546852       -1.36662571123369
H            7.44268826137758       -5.49615415428080       -1.29765640947594
H            4.28906797593000       -3.00366966286698       -1.33183891806431
H            2.00018810982014       -2.14693224633404       -1.34888142310224
H            0.50861386851273       -1.12488572924007        0.02281064892518
H            0.18718632851441        0.76814329631215        0.01862275287987
H            1.39219334868911        2.11097355788173        1.15910359107283
H            3.32870379481404        3.58016754786087        1.17791494224818
H            4.99057784147629        7.74232722685347       -1.26445127795613
H            4.71219161862616       10.18424858345966       -1.18318115316196
H            2.90979803679623       11.18459164052473        0.17642790536452
H            1.39366178456680        9.72166859964758        1.46459213998162
H            1.68082304677468        7.27974521775299        1.40102090858224
H            4.27383075728657        3.82627316906713       -1.35602669072721
H            6.53096293075118        2.85137655881686       -1.39002340448124
H            8.35190804149697        3.88863098956475       -0.08284644544757
H            7.89350751811400        5.90631519020535        1.26508565619688
H            5.63267868774334        6.87042789888137        1.32011856368341
H            1.17842199151179        6.45974655461863       -1.14353387249575
H           -0.76000252676788        4.99036675611460       -1.17965618459124
H           -2.48588139168519        4.08793575836281       -0.22847038634235
H           -4.37322236504242        2.58127993771515       -0.23206590049682
H           -7.20783803187020        0.80029163461782       -1.93544791083371
H           -8.53404654682787        2.88386369039040       -1.97020641832456
H           -8.45728631891516        4.42798527097844       -0.04736222680627
H           -7.04927339693214        3.89313868276896        1.90698495366977
H           -5.71922328069752        1.81190326130158        1.93926432359750
H           -8.38904807188151        0.15572630128955        0.80141492835747
H          -10.68076531390826       -0.65904642845392        0.82818447114394
