93
 energy: -145.007544220675 gnorm: 0.000032785114 xtb: 6.7.1 (edcfbbe)
C           -7.67920622793624       -5.07269416932963        0.12239101133226
C           -7.72855111205487       -3.99134010976524        0.98758002340381
C           -6.77567541185394       -2.99248429270990        0.91407556060589
C           -5.75833463045515       -3.06044436672107       -0.03728971727245
C           -4.72886651907797       -2.03700089741064       -0.14694616489488
N           -3.49308230275180       -2.35037737318109       -0.57642470504849
C           -2.77230991376866       -1.22855905753565       -0.57205616868597
C           -1.42193736212219       -1.17273982127146       -0.97558665626082
C           -0.63647661802490       -2.35677886542757       -0.81955121612693
C            0.71785626806532       -2.30401949710804       -0.86331232871547
C            1.41194440297441       -1.07051998320205       -1.07089517957979
C            2.79728043251829       -0.96111156130094       -0.75551746877275
C            3.34975853394482        0.25041188823542       -0.26970844382477
C            4.67336680092698        0.36088087737623        0.05778411821373
C            5.54306887477468       -0.73446678137391       -0.07841323071772
N            6.89034757008755       -0.61803666122607        0.23915261381701
C            7.56667726560884        0.58381407375091       -0.00172314947881
C            8.52954114077861        1.04608851535432        0.89717964998304
C            9.19680672676276        2.23026086662948        0.65142279108407
C            8.91396387729535        2.97304190604118       -0.48449448306748
C            7.95679187681800        2.51937365802924       -1.37887872820056
C            7.28752109761469        1.33387390906666       -1.14563616695148
C            7.57838815089477       -1.69997032212426        0.80114963261161
C            8.90130300816863       -1.96067772670688        0.43955890563411
C            9.57721101493751       -3.02625307505605        1.00121578004087
C            8.94859383861734       -3.84975078591652        1.92240428945737
C            7.63397433189526       -3.59657839766921        2.28249506982747
C            6.95060350009119       -2.53012803728080        1.73154325994941
C            5.00991986856796       -1.95073155591654       -0.53465697081758
C            3.68279034611788       -2.06246471455216       -0.85110433651716
C            0.64091535738949        0.03055884669758       -1.59065981311628
C            1.24658135835223        1.10682763518002       -2.24903718953849
C            0.49707929625766        2.11763239974005       -2.83077859235643
C           -0.88305989865334        2.04246978808935       -2.82607464803353
C           -1.50922615569069        0.96582992173350       -2.21774574778321
C           -0.77825245799035       -0.02666096008420       -1.56111428228779
N           -3.54133253551491       -0.17011417582112       -0.09197892100323
C           -3.08532658146593        1.11956969193214        0.22009149814487
C           -1.91166441492804        1.28162918027944        0.95220680884941
C           -1.44736293936063        2.54809315480561        1.23628259761554
C           -2.14886423437507        3.67082213653330        0.81346782528074
C           -3.35258326075645        3.50891194687549        0.11879900043568
C           -3.80578530491930        2.23467303994292       -0.18784131314239
O           -4.11048405248350        4.57598345924784       -0.28490953671348
C           -3.74303610464453        5.79533412822057        0.33306095204196
C           -2.22342383671062        5.94788876984736        0.33358726469528
O           -1.63033773485747        4.90962369357200        1.08969484298120
C           -4.79553329041442       -0.67410046450864        0.16903429360724
C           -5.89998390770685        0.11816291595828        0.67843269052929
C           -5.74236935608220        0.95570698993052        1.78525912226543
C           -6.80859497674632        1.69765279850559        2.25617684274665
C           -8.04470447427180        1.62112569775261        1.63418475897922
C           -8.21240768151543        0.78793650421706        0.53840269241243
C           -7.15258846043349        0.04095276934251        0.06342479019370
C           -5.70564886543406       -4.16261725299035       -0.89167975259918
C           -6.65991726393432       -5.15822816508804       -0.81304829148680
H           -8.42776050327581       -5.84926416317105        0.18256727542439
H           -8.51234981009225       -3.92736163519062        1.72877405565054
H           -6.81090673611410       -2.16410538357151        1.60582354541374
H           -1.15924532003093       -3.26843535609664       -0.57524453896362
H            1.28812293420484       -3.19194179667306       -0.63862659505511
H            2.69035795406658        1.08742930788805       -0.09493895561006
H            5.05664068769033        1.28971904392109        0.45548929021761
H            8.74255533590594        0.47425267853578        1.78846749753936
H            9.93732712756884        2.57973215501199        1.35582203841088
H            9.43640590501698        3.89891307717472       -0.67198438529136
H            7.73545426166202        3.08876654682618       -2.26971804934734
H            6.55244125009528        0.97349000317731       -1.85026933423601
H            9.38861431479604       -1.32733530639322       -0.28714660053436
H           10.59944533419725       -3.22002379493524        0.71134613812865
H            9.48014591615030       -4.68239905678358        2.35761536880885
H            7.13884979665660       -4.22948376251834        3.00421051642691
H            5.93116322745062       -2.32459803017305        2.02350763303308
H            5.66824802246666       -2.79827481341111       -0.66103364848098
H            3.31884893398622       -2.99916610597439       -1.24396958258841
H            2.32178344832908        1.13167600054215       -2.34194474689024
H            0.99713965018248        2.94345416775936       -3.31635889721548
H           -1.47743493332131        2.80334578893464       -3.31127217197551
H           -2.58306303714274        0.87632501789417       -2.28337269254623
H           -1.36387045107654        0.41434234717776        1.28625374033877
H           -0.53201283224336        2.69385400341592        1.78685199035355
H           -4.72137308221104        2.13609715763717       -0.74902193194050
H           -4.22289961345219        6.58697339870309       -0.24319208388124
H           -4.11115656637008        5.81128046175290        1.36753945833170
H           -1.85363331289171        5.91076047526388       -0.69987128289026
H           -1.91757006731450        6.88293045559765        0.80397497909036
H           -4.78578683365016        1.00618911263043        2.28527952092417
H           -6.67456542929727        2.33631838377255        3.11729812416180
H           -8.87428923285208        2.20578417576696        2.00291741097509
H           -9.17364246339790        0.72288456443245        0.04979677834233
H           -7.27943343994800       -0.60459557819162       -0.79372965793313
H           -4.90388954078935       -4.21591281202959       -1.61262165438928
H           -6.61086478540618       -6.00399373061055       -1.48384983314010
