93
 energy: -145.084135268727 gnorm: 0.000027621367 xtb: 6.7.1 (edcfbbe)
C           -7.91249362819293       -4.99951184552610       -0.38848257213423
C           -8.04325589475351       -3.94872111750939        0.50526520650418
C           -7.05777975431990       -2.98367684727146        0.59839406063688
C           -5.92626844726923       -3.05346520442053       -0.21279201262267
C           -4.86571945999392       -2.05860716286845       -0.14018011207629
N           -3.57371340019153       -2.40012938186725       -0.42532158577855
C           -2.84829279257006       -1.32844820419825       -0.24177047845074
C           -1.39885135563506       -1.25758800677308       -0.39896460759811
C           -0.61558896016204       -2.16636114070375        0.27447624756648
C            0.77591207407710       -2.05570893334398        0.26324392608822
C            1.40544360101583       -1.02996233840723       -0.40536039668601
C            2.86480664045744       -0.88430085923240       -0.28422373826567
C            3.43583944764290        0.31466498551361        0.14074080615757
C            4.80129706094494        0.43516413465124        0.29258198666729
C            5.64385842177760       -0.64131282998262        0.00964846607231
N            7.02874980977255       -0.51840141873773        0.15293466646425
C            7.66374219524276        0.68694313121058       -0.17236505937791
C            8.73217988313869        1.15318896527631        0.59385242651939
C            9.36083345174867        2.33868588189749        0.26464214586101
C            8.93221386809932        3.08243697375957       -0.82314411393772
C            7.86767461236796        2.62696993501148       -1.58428285280315
C            7.23856966452950        1.43814250733777       -1.26835303657841
C            7.78316099699237       -1.59885565326036        0.62830870293206
C            9.05042660150021       -1.86048884920455        0.10745917249245
C            9.79414318126414       -2.92228760805430        0.58550314932923
C            9.28689832405318       -3.74449078967850        1.57889557637809
C            8.02622533807989       -3.49240166745382        2.09588970976672
C            7.27903113652745       -2.42717640367873        1.63118365331064
C            5.07549851676754       -1.84351539471642       -0.41455020868823
C            3.70766462138279       -1.96217712687299       -0.54708250412456
C            0.63024759772319       -0.13708984941133       -1.19711167650510
C            1.22506743037957        0.84024941787227       -2.02362004675855
C            0.46596962938597        1.65467801237381       -2.81695087619248
C           -0.92752631799273        1.50980982078197       -2.84747553071641
C           -1.53524328239876        0.56502042369642       -2.06913388189731
C           -0.78513997681602       -0.26491448470012       -1.20996575237986
N           -3.61860413305967       -0.27030745221894        0.16878335328445
C           -3.16300922111294        1.02960312187031        0.45392959039115
C           -2.07892757794559        1.21497867517818        1.30595032616900
C           -1.60405072396410        2.48808384914553        1.54476111307175
C           -2.21139577857142        3.59194857661360        0.95926961609637
C           -3.33363354148424        3.40831128371998        0.14290893151093
C           -3.79090773533336        2.12560264305902       -0.12021580729113
O           -4.00386836487070        4.45954276672149       -0.42127034622288
C           -3.66994029278867        5.71213213093977        0.14783407397175
C           -2.15593801324697        5.82789578730649        0.31090544533051
O           -1.68445998642160        4.83295508710914        1.20011423991693
C           -4.91922173567307       -0.72562469277887        0.22832065296679
C           -6.03793895899860        0.12334935642500        0.61883195467614
C           -5.96966749533860        0.91268252755599        1.76590421150106
C           -7.03375511083144        1.72091974936319        2.12110959716842
C           -8.17698894808449        1.75363276441585        1.33976789147846
C           -8.25535270117743        0.96680581440146        0.20149709581843
C           -7.19467953750873        0.15779490438188       -0.15938928464096
C           -5.79439152788217       -4.12420323530226       -1.09661236745141
C           -6.78167958242576       -5.08676319496888       -1.18485555029751
H           -8.68605632873227       -5.75043756015245       -0.45922402252150
H           -8.91670355940769       -3.88321961827115        1.13851556710205
H           -7.15888431395735       -2.17710243168540        1.30962998054832
H           -1.09134329849326       -2.94802992822417        0.84831444414446
H            1.36451738115246       -2.75835205870739        0.83512103535236
H            2.79589645118995        1.15094625951062        0.38285606911869
H            5.22676476831173        1.36615806771492        0.63795156457981
H            9.06294601087802        0.58030237979164        1.44803763031873
H           10.18580726534000        2.68849818488778        0.86829026894690
H            9.42424853901116        4.00972477997924       -1.07581959674795
H            7.52970847034408        3.19702642046467       -2.43762954272645
H            6.41606329223700        1.08045724532181       -1.87065896009982
H            9.44472138530229       -1.22703568595087       -0.67395259375472
H           10.77383506555132       -3.11423758604786        0.17239332184781
H            9.87014595381074       -4.57498163789340        1.94748233467242
H            7.62435296249528       -4.12448617769410        2.87460558175014
H            6.30080215260919       -2.22636598949058        2.04346562824950
H            5.71606527846162       -2.68290611845823       -0.64240715675669
H            3.28294965140526       -2.89582486252913       -0.88638384437275
H            2.30130120540441        0.92135842236178       -2.04077006855184
H            0.93862548546047        2.39567259764136       -3.44518072617394
H           -1.51733945567726        2.13406178975637       -3.50296876222017
H           -2.60347902510561        0.42158826463194       -2.13365779833139
H           -1.60512862707598        0.36391006688763        1.76908053109630
H           -0.75340862516200        2.65210611477487        2.18638122846090
H           -4.64062061604211        2.00672848152781       -0.77338553961634
H           -4.05691223748940        6.47056753686440       -0.53321862879868
H           -4.15148505721301        5.81188758666328        1.12961625090179
H           -1.67410122416705        5.70650416295304       -0.66841337345590
H           -1.87451211731817        6.78691320614891        0.74683733224592
H           -5.08411727636899        0.88210917170495        2.38480790844682
H           -6.97018598249448        2.32570063913628        3.01418555130989
H           -9.00561892276724        2.38778194330447        1.61828597519566
H           -9.14535572248109        0.98664664971005       -0.41043771791011
H           -7.25135644206849       -0.45436567996815       -1.04804882341023
H           -4.90580245617060       -4.18224659026622       -1.70707332308485
H           -6.67038415322757       -5.90879139250787       -1.87764858197632
