93
 energy: -145.084100150197 gnorm: 0.000050678425 xtb: 6.7.1 (edcfbbe)
C           -8.16212715589460       -4.63127255448636       -0.18405019706922
C           -8.47108129571260       -3.31250677547265       -0.47626316648750
C           -7.50024504258379       -2.33176229049970       -0.39317905491589
C           -6.20176579898641       -2.65881858083742       -0.00539476872452
C           -5.14850154867284       -1.65841449982725        0.08982808156455
N           -3.84344861359694       -2.01368055885376       -0.08472869272049
C           -3.12775208706715       -0.92087615029006        0.00853470207960
C           -1.67375265505165       -0.85248621652623       -0.05006875083092
C           -0.99320949860269       -0.06655238070469        0.85468846659115
C            0.39956495808395        0.00887413750155        0.83991847651076
C            1.14466989809066       -0.70234133657422       -0.07183185454257
C            2.61477556477188       -0.63042619187554       -0.00744296368188
C            3.26511130055267        0.59934357956713       -0.07358203207147
C            4.63962164588977        0.68184039229442        0.01491135388967
C            5.40784936704356       -0.47125324639167        0.18000462941449
N            6.80175591325097       -0.39274043798700        0.26692209779132
C            7.50200823130901        0.52730290384916       -0.52292568166379
C            8.62591169978266        1.18259219083269       -0.01919716241533
C            9.31834876165642        2.08328222782726       -0.80554366686991
C            8.89958471927776        2.35451879098137       -2.09829734622157
C            7.78051526421974        1.71094442436741       -2.60184235596698
C            7.08738695673809        0.80124874344576       -1.82667430012317
C            7.49686209830686       -1.23889425735026        1.14049058374236
C            8.73149443787520       -1.77534445984615        0.77460101556810
C            9.41625983618710       -2.60355747420765        1.64302838159600
C            8.88152207056486       -2.91857665262497        2.88195174716070
C            7.65279393825971       -2.39310469481425        3.24824995328468
C            6.96474766978177       -1.55659541356592        2.39042598584908
C            4.75881698589417       -1.70427674702864        0.25981127127360
C            3.38440798060655       -1.77906949212422        0.16837730328983
C            0.47818468324857       -1.50499353906945       -1.03792853096501
C            1.18614331235714       -2.19175739690090       -2.04851578549491
C            0.53529313703058       -2.96460588641012       -2.96878857524513
C           -0.86084034515944       -3.08197999482252       -2.92704676618689
C           -1.58030282633705       -2.40613715349547       -1.98121643387709
C           -0.94093944425399       -1.59730401547220       -1.01818463982727
N           -3.92864392874435        0.16849385668288        0.24582635661116
C           -3.52142429660682        1.50879993762316        0.37971473645009
C           -3.91539411622170        2.25712877808075        1.48485316210754
C           -3.48774067476420        3.56259950035967        1.61542538388395
C           -2.66848706964352        4.13965412095985        0.65284192295877
C           -2.30426348370814        3.39797037650916       -0.47793044540159
C           -2.72953250425128        2.08341141131220       -0.60453407608390
O           -1.54235993717906        3.92938191751296       -1.48263729940975
C           -1.43711140525767        5.34049011347397       -1.42795538047988
C           -1.16171544377572        5.79313947313744        0.00423021542029
O           -2.23710228454317        5.42492571070971        0.84727196360038
C           -5.22601108785184       -0.29332318942186        0.30756338988000
C           -6.36653464647897        0.57680767853019        0.56757063817151
C           -7.28655759261844        0.23771201907818        1.55941244588643
C           -8.37038424252935        1.05573238456311        1.81571070879946
C           -8.55031971015225        2.22267538800733        1.08970925574833
C           -7.64172378554675        2.56575559990337        0.10222536578440
C           -6.55580003930828        1.75057997619730       -0.15964700419388
C           -5.89523006444516       -3.99169650109678        0.26936689961688
C           -6.86864146275523       -4.96817329695670        0.18211322567573
H           -8.92462803748695       -5.39389579929720       -0.24944583888819
H           -9.47464679851059       -3.04620063806378       -0.77643899855294
H           -7.74580985452350       -1.30950545538243       -0.64019898972525
H           -1.53581308504513        0.48155159095783        1.61126653053857
H            0.90087744990509        0.61558499183558        1.58050330775250
H            2.68235591625690        1.49978645391187       -0.20475288416752
H            5.12972288232151        1.64304805375358       -0.04038609447318
H            8.95003288848162        0.98096812994124        0.99155511446367
H           10.18703428273066        2.58320018444789       -0.40197537198076
H            9.44141963760267        3.06139671819584       -2.70868691856784
H            7.44905111470827        1.91098232536691       -3.61060508276897
H            6.22129297064522        0.29404644855369       -2.22645490559266
H            9.14709847358191       -1.53980318004653       -0.19446002411984
H           10.37079728905309       -3.01297198742519        1.34553994604674
H            9.41794437470308       -3.56899248286748        3.55648548968777
H            7.22971844662801       -2.62867750490942        4.21411453795399
H            6.01099152586474       -1.14186585258159        2.68308689565824
H            5.34133035566784       -2.60427358155149        0.39271798079566
H            2.89521465328979       -2.73962917761213        0.24262745915778
H            2.25994568794031       -2.08833416392618       -2.09151442256124
H            1.09254643897183       -3.48303334199567       -3.73563023901302
H           -1.36730331553914       -3.69975963398290       -3.65438470351919
H           -2.65483861144403       -2.49236184390314       -1.94759129486285
H           -4.54035608802706        1.81209555006619        2.24290252897038
H           -3.76884283835818        4.15636219386465        2.47019822689514
H           -2.43191213664408        1.52358836727757       -1.47729814453439
H           -0.61899258933253        5.61165815087126       -2.09571824721230
H           -2.37252965585873        5.79501579160879       -1.78033387090047
H           -0.23421500382026        5.32632878568890        0.36166645471932
H           -1.07925240942261        6.87843827584314        0.06917588719113
H           -7.14118064918509       -0.67197629153072        2.12418886754464
H           -9.07569913114273        0.78307097385442        2.58710233070867
H           -9.39728918855308        2.86137402730257        1.29225524069906
H           -7.78019585235974        3.47139589822310       -0.47025739667385
H           -5.85664079015525        2.01550059634734       -0.93997743934291
H           -4.88253786744576       -4.24007841960888        0.54926501862097
H           -6.61937782796340       -5.99671940103126        0.40128726133854
