  86
       -124.49848002
 C          9.1615897509       -3.3178511978       -1.0060186068
 C          9.2331034624       -2.6081145336        0.3458151788
 N          9.4327018784       -1.1926389751        0.1939084249
 C         10.6483454879       -0.5581155054        0.0977462333
 C         11.9317401336       -1.0800112553        0.1830424446
 C         12.9953746855       -0.2063100393        0.0640930876
 C         12.7983240923        1.1581585050       -0.1380227559
 C         11.5260264944        1.6851706101       -0.2281849605
 C         10.4400079258        0.8271353142       -0.1117899381
 C          9.0205990255        1.0183657774       -0.1614769161
 C          8.2048222980        2.1286990971       -0.3401966032
 C          6.8382603567        1.9581163426       -0.3322733815
 C          6.2557847294        0.6927082927       -0.1602798743
 C          4.7969261309        0.5532437790       -0.1630312482
 C          4.1735965804       -0.5250956481       -0.7948159583
 C          2.8035617766       -0.6452034259       -0.8002810455
 C          1.9808288526        0.3003307551       -0.1669900045
 C          0.5567390719        0.1263587965       -0.2116963986
 C         -0.3719421738        0.9551556307        0.3330932838
 C         -1.7861767528        0.8051735667        0.2799362638
 C         -2.6030334292        1.7675915132        0.9185395565
 C         -3.9630727619        1.6995584018        0.8848229157
 C         -4.6347309202        0.6372611003        0.2182788584
 C         -6.0372908260        0.5295438898        0.2126785923
 C         -6.6888614596       -0.7511430720       -0.0421565543
 C         -6.1953712858       -1.9333035064        0.5945277369
 C         -5.4690323951       -1.8603021164        1.8010041198
 C         -4.9637456878       -2.9941056175        2.3945558502
 C         -5.1501123571       -4.2396536610        1.8094591048
 C         -5.8510028490       -4.3337260760        0.6140669132
 C         -6.3681702734       -3.2075574815        0.0154465804
 C         -7.8366548998       -0.7727479698       -0.9015166820
 C         -7.9803905873        0.1752936640       -1.9329269034
 C         -9.0976662445        0.1860707013       -2.7361318145
 C        -10.1175635042       -0.7347192544       -2.5362156553
 C        -10.0025880634       -1.6692634318       -1.5161857054
 C         -8.8841484270       -1.6950805282       -0.7134882307
 C         -6.8973077308        1.6685494924        0.4608460317
 C         -6.5683679269        2.9502693416       -0.0056842642
 C         -7.4210531956        4.0152444180        0.1947324323
 C         -8.6206556632        3.8378187704        0.8674283601
 C         -8.9652465562        2.5757172152        1.3285279655
 C         -8.1223172619        1.5047976706        1.1238644522
 C         -3.8089901329       -0.3431144722       -0.4006268706
 C         -2.4496058466       -0.2548622838       -0.3785799615
 C          2.6160680195        1.3753569964        0.4738193723
 C          3.9855676854        1.4982751113        0.4696748808
 C          7.0629563714       -0.4274933512        0.0110631014
 C          8.4378230709       -0.2596232804        0.0186072327
 H         10.0886055684       -3.1731597523       -1.5557331290
 H          9.0000929096       -4.3830900365       -0.8639811797
 H          8.3441330982       -2.9145350380       -1.5991059217
 H         10.0580691378       -3.0129159424        0.9384326856
 H          8.3059927461       -2.7694543872        0.9032027049
 H         12.1043364781       -2.1352079590        0.3346362143
 H         14.0032656074       -0.5900565070        0.1263358367
 H         13.6567757830        1.8072622244       -0.2273773849
 H         11.3724942991        2.7419895481       -0.3874062993
 H          8.6378630113        3.1072323986       -0.4845078755
 H          6.1933317024        2.8097042237       -0.4899034974
 H          4.7766583662       -1.2600527259       -1.3086442332
 H          2.3436608045       -1.4826078361       -1.3068743749
 H          0.2245276946       -0.7562108021       -0.7422644922
 H         -0.0322865876        1.8342462090        0.8656787178
 H         -2.1240010627        2.5746251819        1.4564848342
 H         -4.5498432687        2.4311908409        1.4207149252
 H         -5.3364230908       -0.8997258331        2.2763690401
 H         -4.4202672220       -2.9137359926        3.3249782072
 H         -4.7486453123       -5.1265658728        2.2760211560
 H         -5.9838294743       -5.2976170500        0.1435844620
 H         -6.8714187918       -3.2880555128       -0.9370472873
 H         -7.1836843974        0.8826907789       -2.1093640866
 H         -9.1798648175        0.9153025348       -3.5291825008
 H        -10.9954577590       -0.7200924272       -3.1644125340
 H        -10.8007565572       -2.3772644635       -1.3436010661
 H         -8.8257043679       -2.3987879906        0.1042256866
 H         -5.6551759898        3.0903004162       -0.5661702739
 H         -7.1542334089        4.9920966385       -0.1826682397
 H         -9.2846867685        4.6746264647        1.0245288814
 H         -9.8993368001        2.4299456124        1.8515087983
 H         -8.3918134993        0.5274075347        1.4970639985
 H         -4.2822960684       -1.1530612648       -0.9355447674
 H         -1.8683697883       -1.0103395151       -0.8850211543
 H          2.0268196388        2.1223077883        0.9832062424
 H          4.4469683886        2.3276736165        0.9860739211
 H          6.6137321455       -1.3979286449        0.1606644748
