  72
        -98.63221051
 C          3.1851361441        3.6044237295        1.3196651404
 C          2.0099509564        2.6995779839        1.1098635157
 C          1.7345900392        1.6864240933        2.0144780207
 C          0.6840301160        0.8054227554        1.8178468205
 C          0.4140170861       -0.2005194936        2.9011371441
 C         -0.1457606284        0.9199772067        0.6895724331
 B         -1.2514229272       -0.1418685803        0.3586907480
 C         -0.8583474942       -1.6674489097        0.3043401341
 C         -1.8118913256       -2.6053783208        0.7222714026
 C         -1.5247300469       -3.9515334157        0.8425295347
 C         -0.2568958446       -4.4163443687        0.5322634782
 C          0.7045974320       -3.5243162478        0.0945868011
 C          0.4144044884       -2.1694956097       -0.0208015386
 N          1.4477194120       -1.3187342761       -0.4638573879
 C          2.5954695810       -1.0363334391        0.2401909251
 C          3.0411873280       -1.5615020236        1.4439474476
 C          4.2365032949       -1.0891797806        1.9497369353
 C          4.9793759166       -0.1217967784        1.2755673327
 C          4.5510293749        0.3880283092        0.0660946314
 C          3.3538235452       -0.0724624634       -0.4639441715
 C          2.6384490715        0.1961540274       -1.6775327042
 C          2.8914787825        0.9907088882       -2.7870887520
 C          2.0117323443        0.9449579161       -3.8508364725
 C          0.9018295554        0.1022321955       -3.8273375349
 C          0.6210374149       -0.6872090326       -2.7278224565
 C          1.4775423293       -0.6112871645       -1.6402215195
 C         -2.7720759847        0.2340054539        0.2023577470
 C         -3.4363840267        0.9401039115        1.2205933512
 C         -2.7101519304        1.3612519867        2.4637084676
 C         -4.7880163168        1.2297502463        1.1170244596
 C         -5.5307515053        0.8524874672        0.0092735687
 C         -6.9941132437        1.1591601234       -0.0845648959
 C         -4.8789628149        0.1639790062       -1.0021512634
 C         -3.5318868423       -0.1500318737       -0.9163546284
 C         -2.8917934446       -0.8570132051       -2.0740112750
 C          0.0857255603        1.9999032816       -0.1793465052
 C         -0.7994401590        2.2399026553       -1.3664677391
 C          1.1577629075        2.8535101342        0.0289100377
 H          4.0946639258        3.0144017609        1.4210813724
 H          3.0614009706        4.1868148713        2.2326977894
 H          3.3025101623        4.2907830929        0.4846633100
 H          2.3638165197        1.5705179993        2.8856601920
 H         -0.1945885637       -1.0246778803        2.5449364131
 H          1.3497775979       -0.5864560975        3.2979770154
 H         -0.1152097154        0.2854570471        3.7225224435
 H         -2.8011958405       -2.2510308266        0.9722473222
 H         -2.2869928771       -4.6393951313        1.1777048402
 H         -0.0211611890       -5.4661540470        0.6227023075
 H          1.6949611436       -3.8708020642       -0.1639375981
 H          2.4738935806       -2.3180099027        1.9645932586
 H          4.6079271320       -1.4804704110        2.8860068004
 H          5.9086626614        0.2223176538        1.7055544188
 H          5.1350652450        1.1267981626       -0.4622913939
 H          3.7675125288        1.6206892688       -2.8218200492
 H          2.1927274548        1.5526422515       -4.7249879792
 H          0.2516102585        0.0617587846       -4.6899112624
 H         -0.2234309392       -1.3563969604       -2.7205367844
 H         -2.4132952479        0.4858485228        3.0375633132
 H         -3.3469081570        1.9827097267        3.0890215699
 H         -1.8120337639        1.9154166872        2.2092525076
 H         -5.2747668429        1.7677639342        1.9187056556
 H         -7.2443710603        2.0395278761        0.5029381388
 H         -7.5763550421        0.3202713409        0.2989551503
 H         -7.2891765898        1.3271524284       -1.1180579432
 H         -5.4364985853       -0.1361776389       -1.8786066990
 H         -3.6444240792       -1.1926083493       -2.7841743101
 H         -2.2116904308       -0.1808859529       -2.5874333210
 H         -2.3249458753       -1.7167754759       -1.7298280337
 H         -0.6596953759        3.2495219614       -1.7471779584
 H         -0.5519506671        1.5424237502       -2.1633340262
 H         -1.8431312627        2.1023409847       -1.1000653718
 H          1.3338179459        3.6551700678       -0.6748771731
