51
 energy: -80.611514171399 gnorm: 0.000057890754 xtb: 6.7.1 (edcfbbe)
C            5.90609433628223        0.00004925786487        0.01464991352346
C            5.20896795022281       -0.00000381768955       -1.18252675401522
C            3.82475519226746       -0.00002200526143       -1.18012747323128
C            3.13709598158402        0.00001801761071        0.02705045538183
N            1.70962728260083        0.00000539929804        0.03275607755393
C            1.03821691240926        1.20959724190507        0.03366231573755
C            1.75039446033506        2.41286929534199        0.01207435511915
C            1.09315202873825        3.62604545253417        0.00479329589360
C           -0.29083275615618        3.67140474980680        0.01529522825063
C           -1.00295157777215        2.48600678950965        0.03596258236860
C           -0.35871063062293        1.25793426525012        0.04571077811551
C           -1.19445416093154       -0.00002521418674        0.08681375564230
C           -2.23977688112122        0.00001673898631       -1.01358276676720
C           -2.03929349236215        0.00010956282983       -2.37744900247535
C           -3.14974629396235        0.00016291285642       -3.21134550579466
C           -4.43675831681122        0.00011556439325       -2.69065052152107
C           -4.64861338372666        0.00001827265795       -1.32179964736529
C           -3.54141546270258       -0.00002473238924       -0.48732259163243
C           -3.43943892870478       -0.00009078594237        0.95865514751012
N           -4.40414282152974       -0.00013134658472        1.86564940379531
C           -3.98972965735355       -0.00016111033860        3.13064977005549
C           -2.64729368051555       -0.00015078356780        3.47893281981037
N           -1.67102848914057       -0.00011594449268        2.56845106333122
C           -2.07379458913336       -0.00008574198996        1.31689287009059
C           -0.35868664169376       -1.25796517655869        0.04560608971038
C           -1.00290142994292       -2.48605079074431        0.03576039400573
C           -0.29075784748417       -3.67143282977532        0.01502581688162
C            1.09322634712340       -3.62604480374878        0.00456468831159
C            1.75044282725187       -2.41285512187766        0.01192991273333
C            1.03823992264029       -1.20959918264564        0.03357385203670
C            3.83478145902377        0.00007179998311        1.22809399758821
C            5.21912188893028        0.00008630119134        1.21777492320033
H            6.98587760185484        0.00004543471975        0.00995373567651
H            5.74297143176493       -0.00005453771803       -2.12108951427022
H            3.27090057482447       -0.00007162528658       -2.10747989653029
H            2.82904775581991        2.39048452407079        0.00342925134385
H            1.66669645333259        4.54095956197153       -0.00929980289001
H           -0.81150930163115        4.61669811578306        0.00942160183048
H           -2.08448202901991        2.50895841449923        0.04440083351803
H           -1.04009517153371        0.00015665966195       -2.78712236463241
H           -3.00910058926841        0.00024032366915       -4.28206338030810
H           -5.28254765132860        0.00014658466659       -3.36204387809411
H           -5.64346821850393       -0.00002201406427       -0.90364649973105
H           -4.76884119380867       -0.00019679795432        3.88065584989003
H           -2.32786518095046       -0.00017658245808        4.51170237579774
H           -2.08443143585893       -2.50902665130566        0.04419731110382
H           -0.81141429176060       -4.61673705349060        0.00908090055382
H            1.66679034278190       -4.54094577483190       -0.00958979142471
H            2.82909581326161       -2.39044758983393        0.00330382648714
H            3.28716092757535        0.00011077090365        2.15911676529057
H            5.76142361472551        0.00012900277883        2.15154843253986
