51
 energy: -80.538791969271 gnorm: 0.000063249923 xtb: 6.7.1 (edcfbbe)
C            5.97414130718873        0.00081442206502        0.16976419116626
C            5.14731633744249        0.06374305745791        1.27944421981831
C            3.77160824361650        0.05781806048576        1.12309579176706
C            3.22668050837432       -0.01108635547885       -0.15178797202103
N            1.80652973690318       -0.01507041890949       -0.30328377854767
C            1.14692570107572        1.18840289062905       -0.44213233701576
C            1.86758688124344        2.38179746832355       -0.57715086600128
C            1.21211026601656        3.57984988827631       -0.75712642148428
C           -0.17515224103273        3.61978505415751       -0.80990406132250
C           -0.89615123859115        2.45101130597068       -0.66150226633628
C           -0.25529088385140        1.23239727346132       -0.47868060580276
C           -1.05376055233103       -0.00919437940190       -0.21655150061556
C           -2.40542558089215       -0.01982538107907       -0.89280908644290
C           -2.68864751602451       -0.05702825521675       -2.23404217347843
C           -4.02476140410298       -0.05610896853351       -2.63707536177586
C           -5.04614078513934       -0.01687101910102       -1.69373859259462
C           -4.77657250369599        0.02018050800592       -0.34023154029963
C           -3.43933897232825        0.01822764920876        0.07321486093152
C           -2.86084976973113        0.04855580117640        1.36795569676721
N           -3.41615703686967        0.09265408986936        2.60671965436972
C           -2.59652327728024        0.11402521389066        3.64845310871289
C           -1.22915355885759        0.09222658183541        3.52732072457891
N           -0.65597170494380        0.04864978464423        2.28431013895024
C           -1.45506981966543        0.02933520904124        1.26623670929688
C           -0.25874349712206       -1.26267215105110       -0.42287727812559
C           -0.90355490886339       -2.48625042177111       -0.55030908341428
C           -0.18662967517034       -3.66367082709339       -0.63760788818068
C            1.20035923049709       -3.62666096183785       -0.57665288043878
C            1.86000312562049       -2.42358642031538       -0.45395954137715
C            1.14375827834781       -1.22202766495728       -0.38442609365255
C            4.05268814215758       -0.07344263541858       -1.26728476186431
C            5.42686380459259       -0.06736552267630       -1.10143805551756
H            7.04622595049250        0.00561760712348        0.29552787949411
H            5.57198098884377        0.11747849000731        2.27043672125188
H            3.11434314175339        0.10623375551061        1.97836739654366
H            2.94527169336719        2.35971385698728       -0.53856022233641
H            1.78389966550384        4.48985576943486       -0.85806865001978
H           -0.68980245935082        4.55704022763091       -0.95442217834327
H           -1.97600463675004        2.47282520961804       -0.68256179042719
H           -1.89476636085932       -0.08673457513977       -2.96694474669186
H           -4.26569931773250       -0.08503636098441       -3.68895381320743
H           -6.07417615076105       -0.01609955307158       -2.02860300937360
H           -5.56825421976159        0.04999551556901        0.39304795345043
H           -3.06080955245271        0.14973669396677        4.62394050646852
H           -0.56329002743265        0.10846913270615        4.37271651456037
H           -1.98333668808682       -2.50492694815928       -0.57654235316995
H           -0.70427712404507       -4.60491448042707       -0.73913695913109
H            1.76885666641230       -4.54295265107809       -0.62666865094202
H            2.93742510840756       -2.40461657378666       -0.40744527070994
H            3.61421048321153       -0.12612155338887       -2.25285999479536
H            6.06993533875445       -0.11602282992515       -1.96715351191441
