51
 energy: -80.611651632049 gnorm: 0.000035440057 xtb: 6.7.1 (edcfbbe)
C            6.02811046195380       -0.01261812938742        0.19259208970519
C            5.21191416801909        0.02408374586623        1.31128669630854
C            3.83500007489853        0.02372899129914        1.16710064292973
C            3.27561869400440       -0.01332618811231       -0.10310906019688
N            1.85573065090805       -0.01448340886450       -0.24037490975881
C            1.19083944730956        1.18979296514708       -0.38476191227382
C            1.90697818600853        2.38002210888074       -0.54162420774710
C            1.25236237702685        3.58261736451143       -0.71430329033355
C           -0.13115714315848        3.62758670071939       -0.74023614343780
C           -0.84811615707389        2.45602704700253       -0.57354943733481
C           -0.20680180979836        1.24000898095714       -0.39386662532268
C           -1.02792950064439       -0.00153260478039       -0.12969504081943
C           -2.29623132187093       -0.03601829461526       -0.95700577815553
C           -2.41619517671030       -0.10414281039877       -2.32912542106642
C           -3.68907352409985       -0.12331924531979       -2.88422700546973
C           -4.82143382536332       -0.07442885847924       -2.08222706806807
C           -4.71184887125822       -0.00579125917851       -0.70301259019380
C           -3.44223344895031        0.01245948586395       -0.14628562617775
C           -3.01071115777476        0.07649997455995        1.23592136256514
N           -3.73987483543089        0.13496317576560        2.33950992299366
C           -3.04489306312189        0.18353138262333        3.47383143877582
C           -1.65843088676938        0.17321641811300        3.50384630404417
N           -0.91863755010362        0.11490806518952        2.39411734991372
C           -1.59977103096968        0.06755971401943        1.27048693189464
C           -0.21369838790638       -1.26652457753393       -0.27464709609067
C           -0.86182664642035       -2.49063365127806       -0.33382028652513
C           -0.15152782139755       -3.67649095170894       -0.39364581712009
C            1.23237285225580       -3.63645655682956       -0.38336097974241
C            1.89369330372098       -2.42643868627114       -0.32715201941987
C            1.18405332194360       -1.22323540551796       -0.27443165254002
C            4.09271813080934       -0.04986620837528       -1.22639961464848
C            5.46848539575650       -0.04930328585791       -1.07441063343553
H            7.10166997561433       -0.01234358842588        0.30793606623622
H            5.64711654748348        0.05291163631860        2.29909021188407
H            3.18494969839748        0.05165975342523        2.02933533515276
H            2.98557798360104        2.35662554961176       -0.52465566643370
H            1.82790122324913        4.48899147493777       -0.83062831466198
H           -0.64934000102467        4.56428709625743       -0.87749164258848
H           -1.92907999869997        2.48375616871283       -0.57700887038199
H           -1.53773859349147       -0.14170979409877       -2.95621135401478
H           -3.79931884354143       -0.17650625936968       -3.95718727880463
H           -5.79927012349290       -0.09004556537338       -2.54019299133535
H           -5.58328586902736        0.03251570033209       -0.06769334165044
H           -3.62983850555187        0.23126264416106        4.38216043620622
H           -1.10940039548724        0.21195189829479        4.43432878486248
H           -1.94284630983033       -2.51276004511801       -0.32756367777515
H           -0.67507500434601       -4.61920508938481       -0.43789268713842
H            1.80291117602784       -4.55265575086422       -0.42043618010559
H            2.97251478524692       -2.40700978970837       -0.32100569786208
H            3.64492089585927       -0.07853415035591       -2.20908211881717
H            6.10384823890180       -0.07790322974596       -1.94714652776214
