51
 energy: -80.538844058863 gnorm: 0.000083093162 xtb: 6.7.1 (edcfbbe)
C            6.01506679807423       -0.01086577717469        0.19857542187158
C            5.20910886055140        0.02852145484236        1.32467176447354
C            3.83063901605338        0.02787949862176        1.19398349868432
C            3.26262472698678       -0.01208321893414       -0.07209653089646
N            1.84018749489431       -0.01301658740654       -0.20250602048695
C            1.18299391479853        1.18946504765300       -0.35931523067483
C            1.90646710445944        2.38374953072178       -0.47336019755524
C            1.25642286959186        3.58212554311253       -0.66869770960425
C           -0.12906115203643        3.62233048538395       -0.75827107380989
C           -0.85278392447452        2.45297267401283       -0.63187613490113
C           -0.21760678629010        1.23368436053866       -0.43183973885441
C           -1.03217228533636       -0.00444146358639       -0.20716172564931
C           -2.31152763222840       -0.03734804977275       -1.01312932358825
C           -2.45818877299940       -0.10338795159910       -2.37466850017571
C           -3.74729049686821       -0.12261158223364       -2.90876073672729
C           -4.85770717637078       -0.07449362958650       -2.07265223669429
C           -4.72527894722972       -0.00723835294540       -0.70000743674712
C           -3.43605650054791        0.01144121208285       -0.15507770687804
C           -2.98787342219709        0.07296765079514        1.18949659225862
N           -3.66280448798798        0.13414953786536        2.36644381658402
C           -2.95008476064133        0.18138349747621        3.48319163601475
C           -1.57718531954339        0.17067205860854        3.49754550167102
N           -0.88405405915746        0.11002977512888        2.31811712080310
C           -1.57821285774798        0.06468109854070        1.22660011645998
C           -0.22542042549163       -1.26290508287638       -0.31431949347018
C           -0.86849384574893       -2.49166510752409       -0.39535758281429
C           -0.15222202867050       -3.67216965983731       -0.41400491524710
C            1.23387702673946       -3.63219719797604       -0.33438076745255
C            1.89156527653682       -2.42473406242198       -0.25428944337717
C            1.17539161265791       -1.22071795233391       -0.24784257132193
C            4.06753444191685       -0.05134871360316       -1.20385532089381
C            5.44449971190757       -0.05063627284766       -1.06352969154757
H            7.08932817155501       -0.01026230486733        0.30438701241326
H            5.65253009339066        0.05972364007242        2.30837860991030
H            3.18886019068984        0.05786804833287        2.06202171469580
H            2.98262235602605        2.36226466152430       -0.40453110834534
H            1.83082497574314        4.49227270748837       -0.75182038506576
H           -0.63979996961149        4.55967804104101       -0.91543083586405
H           -1.93162481900833        2.47397070913392       -0.68497765849706
H           -1.59432917226331       -0.14012166710460       -3.02337422569844
H           -3.88208705175518       -0.17464812482920       -3.97848111320611
H           -5.84703506742963       -0.09018904293442       -2.50843571626187
H           -5.58692657470611        0.02993347102039       -0.05079470235124
H           -3.50854938077876        0.22921494445119        4.40746455479767
H           -0.99824357418689        0.20820663958079        4.40401508140776
H           -1.94759556003477       -2.51094440602092       -0.44223569285073
H           -0.66914939362322       -4.61693920500605       -0.48006090819487
H            1.80274663335491       -4.54958764270699       -0.33561800276271
H            2.96812870557893       -2.40342099201207       -0.19228225695184
H            3.61040558757069       -0.08228780331247       -2.18183358297952
H            6.07122409497888       -0.08129148430131       -1.94196977017710
