  51
        -80.50504362
 C          5.9141567062        0.0283676636        0.4136929847
 C          5.0144866001        0.1603551458        1.4583893776
 C          3.6532298595        0.1416601032        1.2091541107
 C          3.1950382631       -0.0094382790       -0.0922332595
 N          1.7913533173       -0.0187934125       -0.3300746227
 C          1.1396400147        1.1848293617       -0.5106871290
 C          1.8659944306        2.3690992251       -0.6731107937
 C          1.2148196814        3.5633045409       -0.8961666980
 C         -0.1704435397        3.6046377964       -0.9661248879
 C         -0.8973130293        2.4424389864       -0.7930429522
 C         -0.2601539553        1.2306819919       -0.5676273711
 C         -1.0541854821       -0.0060721968       -0.2721513940
 C         -2.4352873694       -0.0112281121       -0.8810186216
 C         -2.7819524076       -0.0310566119       -2.2068757501
 C         -4.1357403402       -0.0296969126       -2.5451639543
 C         -5.1097476527       -0.0089657431       -1.5525305215
 C         -4.7761784154        0.0109838045       -0.2134883919
 C         -3.4206114242        0.0104254891        0.1348614287
 C         -2.7810508446        0.0301397963        1.3992644685
 N         -3.2636463963        0.0542259158        2.6655467242
 C         -2.4013715637        0.0692768220        3.6652264616
 C         -1.0388276984        0.0623375896        3.4763131791
 N         -0.5357975629        0.0383010977        2.2062294708
 C         -1.3776838910        0.0225775584        1.2280137512
 C         -0.2689553037       -1.2595525081       -0.5189173219
 C         -0.9171656929       -2.4737270746       -0.6938370429
 C         -0.2017418978       -3.6504642494       -0.8051066443
 C          1.1825710032       -3.6211087476       -0.7151566953
 C          1.8450210858       -2.4245951779       -0.5428462985
 C          1.1316172078       -1.2248313927       -0.4562453426
 C          4.0950361144       -0.1411178319       -1.1424066723
 C          5.4543770632       -0.1225412387       -0.8845647358
 H          6.9754823289        0.0431779376        0.6099881855
 H          5.3723137602        0.2778792674        2.4700102088
 H          2.9362635476        0.2435003861        2.0099256250
 H          2.9435696736        2.3450376771       -0.6232859270
 H          1.7906795616        4.4682847263       -1.0182637586
 H         -0.6792149383        4.5394574014       -1.1430671670
 H         -1.9757145997        2.4654729471       -0.8270620594
 H         -2.0233678742       -0.0473245459       -2.9767189493
 H         -4.4276393289       -0.0446314149       -3.5841099321
 H         -6.1521814690       -0.0077262857       -1.8383121274
 H         -5.5322097479        0.0279759267        0.5556597660
 H         -2.8150042378        0.0878926562        4.6629440889
 H         -0.3332690610        0.0743572387        4.2878902103
 H         -1.9954605232       -2.4872005365       -0.7352029529
 H         -0.7186453435       -4.5871460555       -0.9446631171
 H          1.7488538842       -4.5379057836       -0.7805493114
 H          2.9213766858       -2.4128538445       -0.4708568380
 H          3.7236760410       -0.2553724179       -2.1503473624
 H          6.1554301654       -0.2251273346       -1.6992082655
