34
 energy: -49.882712717216 gnorm: 0.000060246819 xtb: 6.7.1 (edcfbbe)
C           -4.84260278785887        1.36818190530945       -0.00073500013242
C           -5.02193294528334       -0.02427766753535       -0.00104290926152
C           -3.95663029004244       -0.88184801703712       -0.00080052333083
C           -2.64050308538753       -0.33970892360124       -0.00025810278529
C           -2.47243726232819        1.09240654673316        0.00008551506372
C           -3.55156309578998        1.92392251744277       -0.00014982271004
C           -1.00696237516432        1.41374573611819        0.00059564477486
C           -0.36996289487076        0.05223460982498        0.00024356152841
C           -1.38897793271924       -0.94836475555773       -0.00010802042765
C           -1.03670368756066       -2.36092128310889       -0.00043021263701
C            0.28767853435407       -2.71661954532233       -0.00066901392730
C            1.27735238301882       -1.74033408606889       -0.00051409474137
C            0.94291272975632       -0.31304551821052        0.00002867233146
C            2.17398407454020        0.42302890880105        0.00000292744588
C            2.42149003158564        1.79630065536894        0.00042945400947
C            3.73082484430503        2.23947320644696        0.00012868926383
C            4.78936097602974        1.34161834272280       -0.00058691016199
C            4.55273271646029       -0.03177750526497       -0.00096004539114
C            3.25558768467801       -0.48426084733844       -0.00064128185919
C            2.76265957649511       -1.90626154984078       -0.00092342622956
H           -5.70413779517248        2.01744751002453       -0.00096540460304
H           -6.02893862540151       -0.41697639431963       -0.00149645955589
H           -4.09739779824409       -1.95171421356758       -0.00104745528849
H           -3.42975328765744        2.99788802854856        0.00008045959234
H           -0.72113685688399        1.99356771589772       -0.88155853473255
H           -0.72163109416682        1.99282417632117        0.88340581362142
H           -1.82209562479694       -3.09834243095756       -0.00051008976346
H            0.57055517843891       -3.76035434797115       -0.00098735586278
H            1.60616974859411        2.50259243891938        0.00099343330278
H            3.93528119694532        3.30054353665752        0.00044517646640
H            5.80472693831784        1.70921798281536       -0.00084774609101
H            5.38087293629619       -0.72626506798094       -0.00149910090024
H            3.11370076930078       -2.45731466225709       -0.88111490180366
H            3.11414874211447       -2.45779610738917        0.87878926152359
