34
 energy: -49.988360669866 gnorm: 0.000178801903 xtb: 6.7.1 (edcfbbe)
C           -4.83819575824500        1.37642553746116       -0.00261517452044
C           -5.02971254525710        0.00299361762966       -0.00277775313026
C           -3.94971369256109       -0.86420065229048       -0.00124855402448
C           -2.67050901848124       -0.33174983707159        0.00078621052811
C           -2.47878137237126        1.05815399541064        0.00090997418727
C           -3.55866418333799        1.91510375927324       -0.00088337985348
C           -1.01240551392301        1.38063812689738        0.00219414704267
C           -0.37950067399217        0.02034708984885        0.00190832002127
C           -1.36828041621813       -0.97823038847205        0.00152109591360
C           -1.03809629937529       -2.32554180588097        0.00125861098994
C            0.29907903977580       -2.69763199182035        0.00059548417907
C            1.27632122574807       -1.72237847855647        0.00015492521585
C            0.95107604020078       -0.35231405044442        0.00132294874344
C            2.18656049109052        0.41514374345844        0.00091483114756
C            2.41671691201993        1.78205210122738        0.00210698389982
C            3.72538403657278        2.23696999165841        0.00068598334636
C            4.78842026101646        1.34730632227263       -0.00187911361412
C            4.56481951041071       -0.02272575532241       -0.00286390715527
C            3.26558402594996       -0.48332685956425       -0.00132130573641
C            2.76694342434868       -1.89849568133344       -0.00204214513172
H           -5.69471118814763        2.03474647741183       -0.00376390985247
H           -6.03460899209835       -0.39396680342059       -0.00418003301154
H           -4.10360056967312       -1.93314825599806       -0.00150459270128
H           -3.41610485897743        2.98647877029464       -0.00032781614753
H           -0.72729714586492        1.95978567033633       -0.88001370168046
H           -0.72846415746468        1.95866343016260        0.88550129336879
H           -1.81265666786853       -3.07767966368275        0.00155782068773
H            0.57233079350100       -3.74319872007263        0.00003909899823
H            1.59753652735984        2.48420098628671        0.00388417813323
H            3.92073667567642        3.29966176533755        0.00173801507310
H            5.80090011211177        1.72379572820000       -0.00289513557606
H            5.39632070567931       -0.71308601321506       -0.00477133228441
H            3.10824888098684       -2.44685992753550       -0.88391855869838
H            3.11098794778191       -2.44911656454861        0.87731455641604
