34
 energy: -49.882712612317 gnorm: 0.000051982927 xtb: 6.7.1 (edcfbbe)
C           -4.84016608312888        1.37252475232100        0.00161237084954
C           -5.02143502068267       -0.01970685948431        0.00412901241500
C           -3.95736614629557       -0.87879661277407        0.00416591533203
C           -2.64042708990305       -0.33853180186817        0.00171212724687
C           -2.47042090947678        1.09338921375455       -0.00050563004034
C           -3.54834644359905        1.92643379695436       -0.00069514363867
C           -1.00454446836634        1.41278503965463       -0.00220033630199
C           -0.36942425750337        0.05044684329403       -0.00068288685187
C           -1.38976340448755       -0.94888396546554        0.00116668815673
C           -1.03909681689367       -2.36184650488000        0.00259928663867
C            0.28482344226293       -2.71917261832963        0.00245718372383
C            1.27573868116078       -1.74405697252603        0.00103808973490
C            0.94292859299809       -0.31647737672473       -0.00034921418540
C            2.17474676486586        0.41832069684390       -0.00012451446971
C            2.42352583122131        1.79134101640017       -0.00030875303975
C            3.73327786787341        2.23324439501049        0.00129821305368
C            4.79091837768129        1.33435824472187        0.00298559532379
C            4.55298397916129       -0.03881116843558        0.00293434876374
C            3.25539800487806       -0.49005634094657        0.00133751529288
C            2.76090032474599       -1.91155182797549        0.00114952466054
H           -5.70077801033564        2.02301182587635        0.00157744397807
H           -6.02899908321439       -0.41095195206920        0.00608504923718
H           -4.09972637459623       -1.94844859108078        0.00612726188760
H           -3.42492649864510        3.00021717444422       -0.00245279228296
H           -0.71886345688482        1.99049064412260       -0.88580336023205
H           -0.71749631113697        1.99319960603050        0.87917153035409
H           -1.82532453538148       -3.09838711287049        0.00373785117028
H            0.56643217751739       -3.76324617880670        0.00354782478893
H            1.60888452864346        2.49840423387900       -0.00155577003945
H            3.93873829408124        3.29412599912216        0.00139224913590
H            5.80662801693030        1.70098893573170        0.00440512245332
H            5.38048021982732       -0.73406318271342        0.00418891099358
H            3.11158227492161       -2.46294606803109       -0.87899095081057
H            3.11158765012317       -2.46349964982595        0.88089760768979
