72
 energy: -119.872042285996 gnorm: 0.000046569474 xtb: 6.7.1 (edcfbbe)
C            6.72219651214958       -3.30298067956831       -1.03361619883204
C            7.87118644852190       -2.54663462816711       -0.79673169856841
N            7.85135634472706       -1.29317067955567       -0.40529032937826
C            6.67529199766183       -0.69435492223766       -0.21745639971686
C            5.45414993819992       -1.36569015761138       -0.42732900253306
C            5.49772073817224       -2.70062527475632       -0.84532912789224
C            4.19915911673569       -0.68246302246712       -0.21189005333810
N            3.06990167351472       -1.33925271032627       -0.41085183479358
C            1.91901316888639       -0.68320027983128       -0.20700854339280
C            0.69093920471474       -1.33501416488226       -0.42547514699794
C           -0.49927811686300       -0.67930396033064       -0.23018991074444
N           -1.70527378537408       -1.33661355546024       -0.47740712449915
C           -2.09914517969875       -2.53597824695183        0.09663557951244
C           -1.40192647056647       -3.37814179955432        0.94944271305825
C           -2.05125076219142       -4.50700010182153        1.41481737123299
C           -3.36416527317163       -4.79230894936559        1.04874406731404
C           -4.06787208317837       -3.94738659192826        0.21273357613611
C           -3.43593642466884       -2.80817718644045       -0.26765780431973
C           -3.85727821430889       -1.73258552478175       -1.12353966435656
C           -5.03615923905419       -1.45890682919501       -1.80340185260696
C           -5.09413169283581       -0.33145222883824       -2.59957642536333
C           -3.98662593813159        0.49932138784978       -2.74671334714817
C           -2.80291302597569        0.24588472544130       -2.07943975148427
C           -2.75878678899539       -0.85302010759444       -1.23560017214501
C           -0.49919738041258        0.67961376691893        0.23097859126264
N           -1.70513995018171        1.33706146239764        0.47817819788437
C           -2.75863728496994        0.85365890939565        1.23648894202684
C           -2.80273903134337       -0.24506986967199        2.08056002484440
C           -3.98640998614812       -0.49829751395703        2.74799325915450
C           -5.09388489639098        0.33250182713408        2.60075416368612
C           -5.03601095181067        1.45964605152965        1.80413093332969
C           -3.85720137789145        1.73309150806833        1.12404932672144
C           -3.43603686743487        2.80820788798209        0.26747370206694
C           -4.06825081565085        3.94679492769741       -0.21403534033811
C           -3.36478494963376        4.79103351465013       -1.05094044211686
C           -2.05175694913210        4.50577187299255       -1.41665622699006
C           -1.40211562316919        3.37760032776424       -0.95008486864389
C           -2.09918778636000        2.53600680473239       -0.09659225622945
C            0.69106171160064        1.33524792423138        0.42622563145958
C            1.91909017174133        0.68335584187840        0.20769994704646
N            3.07005034115985        1.33932370035567        0.41140549521774
C            4.19923953446848        0.68246031470953        0.21227484985883
C            5.45432502501832        1.36558951875084        0.42749584338789
C            5.49808664141882        2.70057916601633        0.84530898206052
C            6.72264541035128        3.30283157255669        1.03337587897067
C            7.87153225918197        2.54632097204306        0.79650470985059
N            7.85152570007795        1.29281101267044        0.40523504383596
C            6.67537947531503        0.69410986440448        0.21755641987868
H            6.79761564795641       -4.32992854950700       -1.35430984133969
H            8.85686811575521       -2.97374627908805       -0.92988768959351
H            4.56780070245179       -3.22360206281351       -1.00942318692357
H            0.70637265777441       -2.35277226446045       -0.78339780678153
H           -0.38775491936576       -3.16103102367518        1.25096041789128
H           -1.52756393829398       -5.17997678954172        2.07766132880449
H           -3.83608142951301       -5.68500325932809        1.43148020992857
H           -5.08971962345703       -4.16134389423398       -0.06088658649578
H           -5.88422802488501       -2.12073460111170       -1.71575828467068
H           -6.00342933352829       -0.09748402439607       -3.13282176216132
H           -4.04840778733496        1.35768946013344       -3.39909548238788
H           -1.94245999176811        0.88118192922838       -2.22503655034944
H           -1.94230073886217       -0.88039327714865        2.22617502257258
H           -4.04816751759006       -1.35651828749976        3.40057719318956
H           -6.00311480988263        0.09876425888753        3.13421581805117
H           -5.88412200914956        2.12139119172729        1.71628133865549
H           -5.09018134199403        4.16072886412315        0.05929371039703
H           -3.83700559511836        5.68311403966553       -1.43472993715087
H           -1.52828216663015        5.17816317736057       -2.08026053437462
H           -0.38786755327489        3.16045625242766       -1.25132893352098
H            0.70655082544868        2.35302997485740        0.78408665573450
H            4.56824075957606        3.22369005321859        1.00939282455665
H            6.79820769609517        4.32981804619195        1.35391836390676
H            8.85727380750602        2.97331018811888        0.92964398470552
