72
 energy: -119.822281143766 gnorm: 0.000034741693 xtb: 6.7.1 (edcfbbe)
C            6.38309682810601       -3.20782078443338        1.28371278335433
C            7.54563860043619       -2.47853571457693        0.99592927710574
N            7.53122640285325       -1.26420297058517        0.51006589843507
C            6.36283472657971       -0.66677693406067        0.26831560719518
C            5.12578180191684       -1.31297126626659        0.52143015660896
C            5.16830977218791       -2.61799582897956        1.04275078948486
C            3.88472656629081       -0.66424723210217        0.25815333759779
N            2.72947345292421       -1.28322730923681        0.47651579483515
C            1.56307160543476       -0.67837935689447        0.24767169397653
C            0.34302583996244       -1.30331938889603        0.48546205724138
C           -0.86647711487058       -0.65675554592672        0.25210670919280
N           -2.06887082800354       -1.32663599895202        0.51624915263447
C           -3.11845688101082       -0.84468227463047        1.27301579252345
C           -3.17033579482384        0.27200752845953        2.09462989504482
C           -4.35460147578703        0.52846763872760        2.75928914453213
C           -5.45588317829417       -0.31381735107672        2.62919781783861
C           -5.39254393536325       -1.45485640683276        1.85069194597717
C           -4.21393435615641       -1.73237361433801        1.17370525279200
C           -3.78796261659542       -2.81219454286305        0.32475283124866
C           -4.40748750430472       -3.96285364526431       -0.14173799994480
C           -3.69610226973995       -4.80729173147133       -0.97401655703436
C           -2.38748913903476       -4.51156066445040       -1.34782999662835
C           -1.75012293252465       -3.36990034270454       -0.89779241633565
C           -2.45565813648968       -2.52664718125737       -0.05108510899777
C           -0.86681087154894        0.65677964964772       -0.25267584322395
N           -2.06964761719280        1.32530998362109       -0.51830766849028
C           -2.45891404521799        2.52463730958006        0.04874011776781
C           -1.75571151840355        3.36870431994370        0.89657567458606
C           -2.39536309069048        4.50927867336511        1.34612637857590
C           -3.70392800674873        4.80316760771121        0.97068741234607
C           -4.41294736923689        3.95797025002919        0.13715901315924
C           -3.79111898430456        2.80836250279151       -0.32885873522429
C           -4.21436654457354        1.72815587708612       -1.17868934260917
C           -5.39156925081636        1.44911897405694       -1.85750387538906
C           -5.45213437203626        0.30815879106212       -2.63635145493793
C           -4.34952619201659       -0.53262905364110       -2.76489622847570
C           -3.16662972285063       -0.27465296063961       -2.09840266581924
C           -3.11750987556816        0.84202231843497       -1.27660085782770
C            0.34232168275120        1.30447501360131       -0.48480167721162
C            1.56271626279717        0.68051485837133       -0.24615153111395
N            2.72882563087587        1.28617780652625       -0.47434967359199
C            3.88439774986031        0.66790306922473       -0.25562535137509
C            5.12516187205838        1.31726830471422       -0.51870109155002
C            5.16710801676539        2.62228971597393       -1.04007769786302
C            6.38162921347810        3.21268520892564       -1.28098642847488
C            7.54450212417120        2.48398279340850       -0.99306943404443
N            7.53063583176983        1.26966471127240       -0.50715455519880
C            6.36251704465247        0.67168253208719       -0.26546967366939
H            6.45307183423517       -4.20705354655914        1.68314141889390
H            8.52587071997122       -2.90307848752960        1.16839276549010
H            4.23219011168927       -3.12072446221893        1.23886108701608
H            0.34686522453155       -2.29963047107065        0.89878248306011
H           -2.31397083311751        0.91604350577077        2.22312423280062
H           -4.42288997709604        1.39867907652468        3.39504895099356
H           -6.36602625824317       -0.07754003202341        3.15992284840085
H           -6.23778650891807       -2.12171240508001        1.77467330713120
H           -5.42478340273583       -4.18876591622173        0.13912737727925
H           -4.15966377387749       -5.70861756358722       -1.34655505064878
H           -1.85904960046276       -5.18604456908510       -2.00528563849298
H           -0.73945150507490       -3.14144738862310       -1.20241265433997
H           -0.74508928661204        3.14164372407516        1.20240628909257
H           -1.86879660352719        5.18434568742196        2.00448636677318
H           -4.16935744819537        5.70365026927538        1.34293932883175
H           -5.43020754078426        4.18247947858186       -0.14496292554165
H           -6.23789208138066        2.11473537635589       -1.78261928480341
H           -6.36112044406626        0.07076665905474       -3.16856107870057
H           -4.41567858641868       -1.40285144714755       -3.40086843560065
H           -2.30918616470236       -0.91751165652311       -2.22560808356724
H            0.34562969512699        2.30083122255222       -0.89802076677284
H            4.23076301460558        3.12456560452428       -1.23627307892410
H            6.45115742788157        4.21192041595208       -1.68048587246990
H            8.52454161306222        2.90895677996879       -1.16556163512385
