  80
       -122.24838314
 C          7.2267231010       -2.9455184156       -0.1064398409
 C          7.0060657558       -1.9291316702       -1.0210823717
 C          5.8362408223       -1.1947201068       -0.9773351242
 C          4.8667575485       -1.4686182278       -0.0160533057
 C          3.6069351730       -0.7062828027        0.0245921361
 C          2.4135533460       -1.3915678503        0.0669487473
 C          1.1923071523       -0.7040770892        0.0531013274
 N          0.0274589027       -1.3740594482        0.1772467316
 C         -1.0995228774       -0.7093177135        0.1405940446
 N         -2.2535185105       -1.4343557908        0.3823329346
 C         -3.3171734199       -0.8864535805        1.1100540088
 C         -4.6206428803       -1.3178526385        0.8677502172
 C         -5.6725641885       -0.7753640682        1.5770588299
 C         -5.4465451899        0.2086379801        2.5265983015
 C         -4.1529676642        0.6318404405        2.7784657297
 C         -3.0914725145        0.0800644004        2.0869489598
 C         -2.2393989418       -2.8225996462        0.1345023958
 C         -1.7184999862       -3.3162316512       -1.0572109032
 C         -1.7208123237       -4.6749982604       -1.3057191566
 C         -2.2455923479       -5.5572688203       -0.3759725516
 C         -2.7616151761       -5.0694151642        0.8124893571
 C         -2.7562635733       -3.7118413177        1.0718372511
 C         -1.1002649226        0.7121117162       -0.1347796543
 N         -2.2553546099        1.4338670343       -0.3805659862
 C         -2.2490194836        2.8222432420       -0.1346071367
 C         -2.7736785983        3.7068380240       -1.0722238429
 C         -2.7902497047        5.0643754953       -0.8138022628
 C         -2.2774167405        5.5572092896        0.3739548639
 C         -1.7435528791        4.6799592273        1.3032659764
 C         -1.7300599925        3.3210991908        1.0557313274
 C         -3.3148809403        0.8806093344       -1.1110285024
 C         -4.6215598530        1.3029408261       -0.8694116129
 C         -5.6688433355        0.7561210207       -1.5823318410
 C         -5.4348468080       -0.2235643591       -2.5345058982
 C         -4.1382027673       -0.6381638638       -2.7851408072
 C         -3.0813575840       -0.0817472348       -2.0900688549
 N          0.0258927729        1.3785404812       -0.1683122478
 C          1.1915142080        0.7099265721       -0.0422179247
 C          2.4123884083        1.3981721194       -0.0560717680
 C          3.6063998130        0.7137198328       -0.0151665968
 C          4.8663121509        1.4762691403        0.0209762119
 C          5.8421900825        1.1998004238        0.9750723488
 C          7.0132988005        1.9326582345        1.0116424364
 C          7.2286990993        2.9504832990        0.0973424787
 C          6.2603026696        3.2387530250       -0.8493013513
 C          5.0854804841        2.5105844943       -0.8846480960
 C          5.0910372904       -2.5014006049        0.8900074196
 C          6.2647834071       -3.2309618872        0.8476223679
 H          8.1438217828       -3.5147436817       -0.1388594930
 H          7.7495298844       -1.7077227565       -1.7728285874
 H          5.6642464843       -0.4101455458       -1.6991171622
 H          2.3932554756       -2.4702452318        0.0974386318
 H         -4.7978751742       -2.0690951053        0.1132229338
 H         -6.6780661078       -1.1150629166        1.3790994215
 H         -6.2733804093        0.6375567246        3.0718233261
 H         -3.9655375051        1.3881203197        3.5263966691
 H         -2.0801190952        0.3851749373        2.3118019242
 H         -1.3058940726       -2.6353750348       -1.7845886888
 H         -1.3138866343       -5.0472899512       -2.2343420300
 H         -2.2477512688       -6.6184284497       -0.5744201463
 H         -3.1632556506       -5.7501570449        1.5486080337
 H         -3.1485753780       -3.3360646454        2.0052931137
 H         -3.1639644188        3.3273765973       -2.0049845465
 H         -3.1990984216        5.7411059272       -1.5496215789
 H         -2.2894940937        6.6182236228        0.5722739907
 H         -1.3393484363        5.0561838177        2.2314940802
 H         -1.3110863612        2.6442527991        1.7832167971
 H         -4.8047322858        2.0510891641       -0.1131497595
 H         -6.6769149366        1.0888720075       -1.3851568151
 H         -6.2580214751       -0.6555002560       -3.0829271403
 H         -3.9445879247       -1.3905699820       -3.5354545030
 H         -2.0675734760       -0.3796953040       -2.3140374360
 H          2.3913840640        2.4769227411       -0.0857878429
 H          5.6745385583        0.4142979126        1.6968211109
 H          7.7619496816        1.7089542025        1.7575709578
 H          8.1467383028        3.5186770153        0.1243034416
 H          6.4212216832        4.0336252654       -1.5631920917
 H          4.3349202442        2.7287595049       -1.6307584674
 H          4.3451349903       -2.7179629463        1.6413476590
 H          6.4300194735       -4.0246808575        1.5618369930
