  34
  -67.1139945300000       0.209326238624232      !
 O         -0.7583641814       -2.2121905238        0.1752583372
 C         -1.4142757627       -1.1904248426        0.1081504303
 C         -2.8730023532       -1.2009986559       -0.0175746270
 C         -3.5378523408       -2.4060263864       -0.1392389669
 C         -4.9266921203       -2.4328216636       -0.2892810947
 C         -5.6466045518       -1.2654912880       -0.3158975709
 C         -5.0040773591       -0.0161749185       -0.1866982960
 C         -5.7039742658        1.2086649192       -0.1949619278
 C         -5.0378505296        2.3983670270       -0.0479964011
 C         -3.6497773508        2.4191908015        0.1131836228
 C         -2.9278739637        1.2413317704        0.1155115132
 C         -3.5943813459        0.0094694231       -0.0358191503
 C         -1.4689693758        1.2974216581        0.2887558457
 O         -0.8788087751        2.3092571936        0.5614627948
 N         -0.7879150893        0.0584835114        0.1294895923
 C          0.6011542770        0.0794000653        0.0743850930
 N          1.2817756960        1.1333871937       -0.1714912219
 C          2.6189725481        0.8878535782       -0.1711159429
 C          3.6174453809        1.8304877648       -0.4043818282
 C          4.9346686737        1.4300903707       -0.3732279397
 C          5.2573563366        0.0975148807       -0.1134291457
 Cl         6.9254341309       -0.3669564141       -0.0833636194
 C          4.2910667023       -0.8615287885        0.1201162300
 C          2.9670675098       -0.4559549515        0.0930070078
 S          1.5297653008       -1.4074076045        0.3187536977
 H         -2.9641154150       -3.3204890147       -0.1227052864
 H         -5.4282538291       -3.3835195100       -0.3887081387
 H         -6.7204957134       -1.2870214611       -0.4344336137
 H         -6.7776258220        1.1922083673       -0.3146916504
 H         -5.5825467686        3.3301898416       -0.0538890283
 H         -3.1194410835        3.3519613371        0.2326198762
 H          3.3427424216        2.8531726276       -0.6034545802
 H          5.7273488701        2.1400596833       -0.5492882967
 H          4.5569513959       -1.8869933550        0.3186208230
  34
  -67.1139890200000       0.208109281120145      !
 O         -0.7348925551       -2.3604116808       -0.4732688355
 C         -1.3877148853       -1.3792438008       -0.2313398919
 C         -2.8502723307       -1.4067421646       -0.0877059263
 C         -3.5023123288       -2.6246969111       -0.0916913110
 C         -4.8926284333       -2.6839162137        0.0361271278
 C         -5.6298805577       -1.5341113849        0.1580518374
 C         -5.0020047543       -0.2707381617        0.1585456651
 C         -5.7187983266        0.9394369581        0.2661001266
 C         -5.0675390202        2.1466688922        0.2503586975
 C         -3.6770538955        2.2003692972        0.1286307670
 C         -2.9404407071        1.0356886588        0.0268207123
 C         -3.5901521889       -0.2146750075        0.0390598118
 C         -1.4819902110        1.1103907754       -0.0802845351
 O         -0.8864349198        2.1673708876       -0.1546497966
 N         -0.7831853992       -0.1007099062       -0.0853540174
 C          0.6049881706       -0.0390004726       -0.0317131580
 N          1.3455625256       -1.0444310720        0.2424124833
 C          2.6669682656       -0.7260361614        0.2155520654
 C          3.7183673684       -1.6045622616        0.4646127520
 C          5.0115010565       -1.1364309840        0.3929883139
 C          5.2572143289        0.2005473129        0.0786882869
 Cl         6.8970667535        0.7504028180       -0.0074997954
 C          4.2367641498        1.0983581439       -0.1689173311
 C          2.9373945080        0.6243837122       -0.1016993411
 S          1.4465897165        1.4880297743       -0.3353729735
 H         -2.9150815286       -3.5251080055       -0.1917972708
 H         -5.3817992891       -3.6460345655        0.0361823047
 H         -6.7051925140       -1.5789916012        0.2523223882
 H         -6.7946351117        0.8990340976        0.3570212530
 H         -5.6265065353        3.0664849576        0.3308179053
 H         -3.1568047799        3.1464721681        0.1182619464
 H          3.5015175182       -2.6325667079        0.7035472468
 H          5.8439159579       -1.7973158272        0.5748279025
 H          4.4450975187        2.1276584253       -0.4107209304
  34
  -67.1138382900000       0.177427419891871      !
 O         -0.7443093015       -2.4097611249       -0.2864907738
 C         -1.3927394879       -1.4031089031       -0.1755696310
 C         -2.8639147830       -1.4044836095       -0.1992014067
 C         -3.5266258616       -2.6018768460       -0.3910851739
 C         -4.9231081125       -2.6435022853       -0.4123180666
 C         -5.6568382532       -1.4978424679       -0.2390411928
 C         -5.0181367344       -0.2561413334       -0.0391799183
 C         -5.7273270966        0.9490168690        0.1466429882
 C         -5.0628306193        2.1336612393        0.3381976532
 C         -3.6664962556        2.1697072662        0.3515935263
 C         -2.9378691444        1.0091462417        0.1727582774
 C         -3.6007656527       -0.2178896217       -0.0232688146
 C         -1.4754227972        1.0667528958        0.1847913206
 O         -0.8751049557        2.1117287047        0.3537013278
 N         -0.7785707636       -0.1288027340       -0.0089640584
 C          0.6114587401       -0.0618468200       -0.0141570761
 N          1.3750811324       -1.0669349484       -0.2138015951
 C          2.6915602085       -0.7322370638       -0.1610769750
 C          3.7583446142       -1.6111275907       -0.3318272311
 C          5.0438511806       -1.1243100826       -0.2478785616
 C          5.2664611144        0.2303570798        0.0027155656
 Cl         6.8979022095        0.8045481087        0.1017159215
 C          4.2300059169        1.1267825524        0.1760883469
 C          2.9376988476        0.6351615066        0.0937072837
 S          1.4318341172        1.4872973937        0.2625522108
 H         -2.9433105726       -3.5003317851       -0.5260977492
 H         -5.4203568416       -3.5894137923       -0.5645605468
 H         -6.7368729125       -1.5310446251       -0.2499955706
 H         -6.8075308043        0.9220499005        0.1384401181
 H         -5.6153768224        3.0498331300        0.4808289655
 H         -3.1371634613        3.0989609006        0.4996108253
 H          3.5602187609       -2.6527208014       -0.5228961784
 H          5.8881891713       -1.7832607256       -0.3731771716
 H          4.4188639572        2.1702677090        0.3694202403
  34
  -67.1136589200000       0.146753339459225      !
 O         -0.7651950830       -2.2221654377        0.3685472439
 C         -1.4162235235       -1.2031496335        0.2489905627
 C         -2.8638623298       -1.2056527647        0.0273550561
 C         -3.5237476799       -2.4051118486       -0.1568410449
 C         -4.8940963371       -2.4208430171       -0.4295277848
 C         -5.6004617067       -1.2482831050       -0.5140190941
 C         -4.9645869533       -0.0043746494       -0.3163662724
 C         -5.6544099193        1.2249377287       -0.3743596073
 C         -4.9990253006        2.4089524206       -0.1526195541
 C         -3.6307565833        2.4199247446        0.1319282870
 C         -2.9174669777        1.2381095531        0.1793431335
 C         -3.5735132097        0.0107049171       -0.0429034844
 C         -1.4762489732        1.2797538022        0.4617168355
 O         -0.8985262785        2.2684464434        0.8289930522
 N         -0.7914438625        0.0465586951        0.2809171747
 C          0.5947382707        0.0759334901        0.2022069794
 N          1.2539679376        1.1237329431       -0.1199176106
 C          2.5914054281        0.8845226273       -0.1705901777
 C          3.5705848715        1.8159794515       -0.5068243264
 C          4.8886937432        1.4186026350       -0.5374078168
 C          5.2319377970        0.1007225976       -0.2336494802
 Cl         6.8998711302       -0.3619777454       -0.2898555814
 C          4.2854744539       -0.8466703575        0.1050508769
 C          2.9605096493       -0.4446235859        0.1371490219
 S          1.5416106481       -1.3906791076        0.4765931829
 H         -2.9598005435       -3.3238204354       -0.0965699109
 H         -5.3917743213       -3.3671515422       -0.5770377242
 H         -6.6595155321       -1.2612510721       -0.7276901975
 H         -6.7125674716        1.2163939072       -0.5924276525
 H         -5.5368696352        3.3438163514       -0.1946829505
 H         -3.1087153552        3.3478978935        0.3104120768
 H          3.2808189838        2.8273406576       -0.7392757922
 H          5.6656186387        2.1199201782       -0.7969613302
 H          4.5669649443       -1.8611885012        0.3353070028
  34
  -67.1135117000000       0.125582858774356      !
 O         -0.7640102234       -2.2153560745        0.4176470400
 C         -1.4144693399       -1.1976944980        0.2836941962
 C         -2.8585200591       -1.2032418461        0.0412769138
 C         -3.5128305986       -2.4042752045       -0.1524727432
 C         -4.8781245822       -2.4228545971       -0.4491820586
 C         -5.5851616276       -1.2516584452       -0.5463954321
 C         -4.9553210778       -0.0063758035       -0.3382385659
 C         -5.6465190003        1.2215546960       -0.4080751753
 C         -4.9971944685        2.4068249090       -0.1755115257
 C         -3.6333905679        2.4208216416        0.1300302558
 C         -2.9182211262        1.2406060451        0.1884059405
 C         -3.5688811565        0.0117839847       -0.0422045677
 C         -1.4800578831        1.2855657444        0.4866005577
 O         -0.9075512342        2.2759676723        0.8574695153
 N         -0.7914745617        0.0528453609        0.3166585667
 C          0.5944393831        0.0832177326        0.2368886315
 N          1.2538428188        1.1323128261       -0.0809022489
 C          2.5898727970        0.8890467577       -0.1491248979
 C          3.5682999156        1.8192590398       -0.4911937255
 C          4.8838235684        1.4158151995       -0.5467979093
 C          5.2255297617        0.0934852123       -0.2612702546
 Cl         6.8894420643       -0.3780618415       -0.3542532408
 C          4.2801398351       -0.8521864980        0.0849566388
 C          2.9577967959       -0.4441400983        0.1419278022
 S          1.5399847352       -1.3881858305        0.4909724576
 H         -2.9479872065       -3.3216574500       -0.0813009964
 H         -5.3713733240       -3.3702804676       -0.6045445758
 H         -6.6404245261       -1.2669201906       -0.7781214990
 H         -6.7013095852        1.2107589605       -0.6420973041
 H         -5.5365356739        3.3404912425       -0.2250535626
 H         -3.1161408519        3.3501309703        0.3154264338
 H          3.2800127955        2.8341882996       -0.7094462579
 H          5.6596208190        2.1152381085       -0.8145298622
 H          4.5598185398       -1.8705522807        0.2998550391
  34
  -67.1129360300000       6.829214451861582E-002 !
 O         -0.7455969739       -2.2381350811       -0.3257243605
 C         -1.4133069016       -1.2362004259       -0.1976519263
 C         -2.8791139119       -1.2237975646       -0.2479047816
 C         -3.5595730281       -2.4035541458       -0.4763514830
 C         -4.9550570558       -2.4128018369       -0.5458235515
 C         -5.6655182238       -1.2506590381       -0.3883044511
 C         -5.0066925598       -0.0259544245       -0.1505600427
 C         -5.7009178340        1.1897840843        0.0235999492
 C         -5.0237549776        2.3578448975        0.2623251176
 C         -3.6285560428        2.3639911446        0.3380806788
 C         -2.9133997474        1.1950724854        0.1675035755
 C         -3.5900521834       -0.0171773646       -0.0802216442
 C         -1.4478494638        1.2296035486        0.2599670768
 O         -0.8176103409        2.2122851700        0.5650076183
 N         -0.7970285641        0.0083697023       -0.0059879469
 C          0.5977038719        0.0358335243       -0.0384784168
 N          1.2704500719        0.8659639915       -0.7346178283
 C          2.6098057601        0.7056475063       -0.5554739722
 C          3.6118708136        1.4536061280       -1.1672731102
 C          4.9293536217        1.1676860101       -0.8854661455
 C          5.2518919888        0.1393702007        0.0007660937
 Cl         6.9179853832       -0.1886152936        0.3306252020
 C          4.2837854211       -0.6246109604        0.6242994346
 C          2.9600772458       -0.3320055216        0.3408134862
 S          1.5275096066       -1.1016197986        0.9428679273
 H         -2.9918467629       -3.3133920113       -0.6012911273
 H         -5.4689836693       -3.3447450792       -0.7255022429
 H         -6.7444406144       -1.2567880236       -0.4421830723
 H         -6.7797539067        1.1832530416       -0.0329556304
 H         -5.5642033068        3.2826582013        0.3954214236
 H         -3.0871635018        3.2784100281        0.5287873655
 H          3.3407407693        2.2444414449       -1.8469526787
 H          5.7221573613        1.7350347685       -1.3462276061
 H          4.5487030000       -1.4156120515        1.3064265619
  34
  -67.1128821700000       6.450871761155569E-002 !
 O         -0.6878708027       -2.2300290644       -0.6131700892
 C         -1.3792779930       -1.2621351139       -0.4030736585
 C         -2.8464834861       -1.2707391299       -0.4638654848
 C         -3.5006394465       -2.4220762745       -0.8548318598
 C         -4.8962517736       -2.4585560883       -0.9121918792
 C         -5.6334731205       -1.3520471339       -0.5774902263
 C         -5.0021100077       -0.1577480174       -0.1707593303
 C         -5.7251355551        1.0002276302        0.1855190550
 C         -5.0758462493        2.1420633931        0.5788126176
 C         -3.6800727942        2.1788641638        0.6321837395
 C         -2.9380593937        1.0657796132        0.2905315721
 C         -3.5851575320       -0.1201637940       -0.1164383089
 C         -1.4733095661        1.1320014850        0.3407606106
 O         -0.8504841138        2.1135317938        0.6783821727
 N         -0.7999797802       -0.0328729584       -0.0478423619
 C          0.5972252715        0.0252454938       -0.0583979455
 N          1.3061659650       -0.1405911577       -1.1033558018
 C          2.6371245084       -0.0637510904       -0.8276783218
 C          3.6722993386       -0.2032644904       -1.7477592648
 C          4.9748428645       -0.0953903773       -1.3135113595
 C          5.2499338581        0.1522231568        0.0319017759
 Cl         6.8980845049        0.2792494142        0.5390543229
 C          4.2477475411        0.2980896444        0.9722337276
 C          2.9393950634        0.1868491435        0.5318162367
 S          1.4734477914        0.3176840974        1.4481385289
 H         -2.9113829189       -3.2886623356       -1.1145577047
 H         -5.3890196577       -3.3673756026       -1.2222448670
 H         -6.7127330437       -1.3793928452       -0.6194167722
 H         -6.8042260668        0.9700861697        0.1445082697
 H         -5.6384597733        3.0225316526        0.8494106209
 H         -3.1600998468        3.0740523821        0.9389054347
 H          3.4383111049       -0.3948837626       -2.7818999390
 H          5.7926344242       -0.2015343430       -2.0082115361
 H          4.4757766020        0.4880738450        2.0080865105
