  56
        -95.42672879
 N         -3.4624802006        7.5991653623        0.9769877208
 C         -3.0400535649        6.5424420646        0.8114183364
 C         -2.5134884641        5.2543870079        0.6127911125
 C         -3.1561790365        4.1339632993        1.1554180051
 C         -2.6377864122        2.8778307806        0.9538108460
 C         -1.4613413286        2.6914174047        0.2137624047
 C         -0.9077630222        1.3630017459        0.0050259396
 C          0.4558049610        1.1705732347        0.0387364721
 C          1.0058882359       -0.1129019704       -0.0669675439
 N          2.4024993630       -0.2831650741        0.0129806079
 C          2.9572005642       -1.0596461390        1.0117416667
 C          2.1912208613       -1.6398492434        2.0310503654
 C          2.7853330574       -2.4270015053        2.9911935613
 C          4.1642399545       -2.6494410900        2.9775243464
 C          4.9486312403       -2.0480031997        2.0149023485
 C          4.3631545500       -1.2477472757        1.0417536489
 O          5.1807596924       -0.6429141427        0.1481280563
 C          4.6340221248        0.1534189928       -0.8005704706
 C          5.4951090230        0.7728002458       -1.6983219371
 C          4.9869041221        1.5546757388       -2.7147956233
 C          3.6047388959        1.6983952979       -2.8582369484
 C          2.7402634974        1.0932265546       -1.9745286594
 C          3.2308994404        0.3331623544       -0.9053207482
 C          0.1681966058       -1.2338632325       -0.1911660413
 C         -1.1986133089       -1.0920616945       -0.2485956740
 C         -2.0551239912       -2.2695639221       -0.3361648053
 C         -1.6908184189       -3.3602555543       -1.1358013108
 C         -2.4848987948       -4.4801943916       -1.2107378236
 C         -3.6728605874       -4.5449685454       -0.4735349907
 C         -4.4838255040       -5.6928085189       -0.5414113827
 N         -5.1384294267       -6.6361866270       -0.5933875662
 C         -4.0439873962       -3.4635966652        0.3338897134
 C         -3.2472584010       -2.3444099367        0.3940732561
 C         -1.7633850742        0.2272600452       -0.2133844006
 C         -3.1013885182        0.4166601789       -0.5299122619
 N         -4.2068287340        0.5778609139       -0.8357764877
 C         -0.8205880638        3.8227714854       -0.3144266754
 C         -1.3363301040        5.0819691112       -0.1269592620
 H         -4.0588433834        4.2677544950        1.7326275793
 H         -3.1326685385        2.0244996796        1.3902921911
 H          1.1140922938        2.0051081558        0.2324103122
 H          1.1292766195       -1.4549078782        2.0644189216
 H          2.1769729866       -2.8675473604        3.7649517389
 H          4.6186396600       -3.2725253020        3.7306870287
 H          6.0195587127       -2.1718239081        1.9955744723
 H          6.5550225034        0.6161428086       -1.5772733747
 H          5.6554065317        2.0383940239       -3.4083773061
 H          3.2065475217        2.2823427736       -3.6728007649
 H          1.6742860373        1.1914330969       -2.1064232495
 H          0.6130544714       -2.2169174080       -0.2383949515
 H         -0.7885031672       -3.3087304685       -1.7278009327
 H         -2.2043607618       -5.3124393752       -1.8396379903
 H         -4.9575940899       -3.5165541773        0.9070002192
 H         -3.5352372417       -1.5222054112        1.0304969669
 H          0.0735945361        3.7003393411       -0.9086290715
 H         -0.8461322141        5.9459104897       -0.5515994499
