56
 energy: -95.476614934125 gnorm: 0.000045490791 xtb: 6.7.1 (edcfbbe)
N           -4.05573423559627        7.31361563503281       -1.06757268571805
C           -3.55920323929669        6.28563589510517       -0.91289543227007
C           -2.94459287898690        5.03830900576216       -0.72509232606171
C           -3.41503660063929        3.90468352462053       -1.40398067306195
C           -2.81535083472650        2.68390927064360       -1.20768729848977
C           -1.72645851349432        2.54424106049367       -0.33567951836647
C           -1.07155552348485        1.25733261679450       -0.13447909171471
C            0.30470914926579        1.20667802092912       -0.09205062340803
C            0.98091368078216       -0.01791881444713       -0.00383146700624
N            2.39021027714547       -0.04545189526171       -0.00202457279954
C            3.09897600492965        0.60088927918453        0.99105887017679
C            2.47248993175164        1.25147415422440        2.06164134255592
C            3.22055096774277        1.89590194041553        3.02205411669031
C            4.61354072809909        1.90152444624398        2.95428756004748
C            5.25696798969447        1.23102159168182        1.93365059469628
C            4.51454255524352        0.57343472947682        0.95945662256497
O            5.19226996705134       -0.10511652177848        0.00450489535752
C            4.49076504117657       -0.75412942083870       -0.95380821282401
C            5.20900734397826       -1.44296639470185       -1.92450470585463
C            4.54221306155208       -2.08604519394529       -2.94780458758061
C            3.15105760796563       -2.02083091877534       -3.02215061308755
C            2.42665214245880       -1.34482703310314       -2.06531115753683
C            3.07546862399102       -0.72099927148175       -0.99205710628745
C            0.25787358635364       -1.21596103687098        0.08432554378569
C           -1.11902013911083       -1.21257617336762        0.12640771351157
C           -1.82369032975493       -2.47289618177153        0.33042290584727
C           -1.39838587480769       -3.63583107256294       -0.33057152015195
C           -2.04181109927858       -4.83512336994944       -0.14510891302802
C           -3.13702590061961       -4.91651278626799        0.72737245766182
C           -3.79964200617853       -6.13855914549229        0.91930415127870
N           -4.33624248361431       -7.14561080153324        1.07734706697903
C           -3.55796741045616       -3.76541161363839        1.40919904750380
C           -2.91190077374937       -2.56912782326990        1.20883834431910
C           -1.82065101130782        0.03605235218378       -0.00470897259204
C           -3.20580713441177        0.06068718024813       -0.00596254254558
N           -4.36672045437855        0.07912074082679       -0.00717488850136
C           -1.25162272442796        3.68971898502311        0.32255234017514
C           -1.84809566824630        4.91345041953353        0.14076011151881
H           -4.24997309918117        4.00070600345724       -2.08310979979623
H           -3.17700143425083        1.82511444424144       -1.75254007844434
H            0.87650917859960        2.11422190396261       -0.21508819951558
H            1.39738740342112        1.23347656566462        2.13360383991169
H            2.71993104681925        2.39370935705611        3.83725936996172
H            5.18997326026111        2.41309115754342        3.70794536589044
H            6.33230027856185        1.19256450577224        1.86928392686372
H            6.28468338842882       -1.45044622705111       -1.85510054339774
H            5.09975682736752       -2.62216742819550       -3.69858859360699
H            2.63351771362226       -2.49738070063282       -3.83948729077070
H            1.35363184691186       -1.28091927131171       -2.14222491628151
H            0.79369240746925       -2.14507106546200        0.20823555013633
H           -0.57177246331557       -3.58251073257626       -1.02360901120716
H           -1.71911131205087       -5.72118059106645       -0.67286587416789
H           -4.39173572849169       -3.82827340007200        2.09359072033185
H           -3.23619114324846       -1.69661024453732        1.75545306878981
H           -0.42413368982200        3.60383143546761        1.01122221234171
H           -1.48750181051383        5.78604970507836        0.66641949637901
