56
 energy: -95.554527605922 gnorm: 0.000060148512 xtb: 6.7.1 (edcfbbe)
N           -4.67673033786010        7.11716122207894        0.59919250480161
C           -4.10870335046941        6.12282376065504        0.52270234674964
C           -3.40534871806950        4.90115590329180        0.42819239963619
C           -2.34575692046109        4.77490851647277       -0.47265029727365
C           -1.66442785514176        3.57907664556179       -0.56288904220414
C           -2.02891244527896        2.49178857674399        0.23107971723302
C           -1.29480004098966        1.22107461258111        0.11724063457925
C            0.09209477979038        1.21804958401315        0.13626191229617
C            0.80321532652751        0.02710180887143        0.01243902120866
N            2.20860791250557        0.03562669443199        0.02450920678413
C            2.91597414200588        0.47249570397725        1.15166618584530
C            2.28032134655695        0.90674857998516        2.30847986952886
C            3.01284778612389        1.32034352698798        3.41089930611439
C            4.39279732520431        1.29617593032280        3.38107805406860
C            5.04279780763151        0.83570078719267        2.24578291096310
C            4.31613434571893        0.41999082572524        1.14464433566034
O            5.03359159472127       -0.05675184058588        0.07340000465638
C            4.32596250469182       -0.47298282166072       -1.02845623049199
C            5.06027559414988       -0.92514383167147       -2.11011907318105
C            4.41969784855799       -1.32810238748694       -3.27240668185823
C            3.04320952295600       -1.25497343645798       -3.35044511887229
C            2.30341067925459       -0.80471264173754       -2.26754485404762
C            2.92694226355950       -0.43198226600227       -1.08282435882777
C            0.11569768743938       -1.17676244381663       -0.12629689943643
C           -1.26997947242457       -1.20585792699298       -0.14033615955487
C           -1.97791115146089       -2.49081023572226       -0.25649656048712
C           -1.60272821611222       -3.41022261562904       -1.23588758035726
C           -2.25897689682047       -4.61770847309610       -1.35406168515586
C           -3.30111960604224       -4.92711318134942       -0.47766964694953
C           -3.97667160492538       -6.16237745468196       -0.59278020588205
N           -4.52236750634963       -7.16776791229081       -0.68573040241731
C           -3.67314336137478       -4.01893214892711        0.51528573924910
C           -3.01383515211328       -2.81159720293859        0.61987208266860
C           -1.98137637709870        0.00282230379895       -0.02952065232377
C           -3.38485233705488        0.00346266559884       -0.18302182057754
N           -4.52037235565004        0.00785771625341       -0.35749253220108
C           -3.08159146281178        2.62934802110283        1.13474872192552
C           -3.76719728514507        3.82238718476988        1.23712190525852
H           -2.06914808271253        5.61320325530555       -1.09468440134863
H           -0.85527519930498        3.47633845783857       -1.27027960324495
H            0.62590104343847        2.14948460976915        0.24904987312077
H            1.20309719190887        0.91362255581237        2.35718682426261
H            2.49141992966652        1.65600024110379        4.29407102661998
H            4.96856021358858        1.61905006367847        4.23395958002184
H            6.11900733174449        0.78324371215182        2.19568683111048
H            6.13514582266336       -0.94819617079155       -2.02308523935848
H            5.00106380532868       -1.68221020024683       -4.10890996328938
H            2.53175032730852       -1.54211444237623       -4.25635105497395
H            1.23048985953896       -0.73249777407952       -2.35096802923384
H            0.66981077279124       -2.10047362284763       -0.19710339219246
H           -0.80467968928237       -3.16655902352067       -1.92092690715778
H           -1.97553791646745       -5.32536816235290       -2.11893998242570
H           -4.47398928196121       -4.26715719020079        1.19564742140505
H           -3.29512297022041       -2.11843075053739        1.39843742932504
H           -3.35707522365911        1.80219092855378        1.77169860978659
H           -4.58219194810517        3.92757076334918        1.93754492043256
