56
 energy: -95.554462278749 gnorm: 0.000088636507 xtb: 6.7.1 (edcfbbe)
N           -4.17952591457031        7.23362168703191       -0.98099653957084
C           -3.65785038212851        6.22082486391502       -0.84197318069475
C           -3.01173633818514        4.97643893935762       -0.66963750834716
C           -3.34730667120550        3.89646013684253       -1.48827992561751
C           -2.71537178451198        2.68236544558928       -1.31362653781141
C           -1.74245296693597        2.52612307527981       -0.32781561808546
C           -1.05359735630680        1.23698837767070       -0.14690873934155
C            0.33177858061561        1.19778271611350       -0.12760322273208
C            1.01007171002845       -0.01339961501644       -0.00586071496446
N            2.41355206248845       -0.04109271160642       -0.00538521089148
C            3.14203749910620        0.65500622906521        0.96823917370505
C            2.52772298551932        1.34636632582630        2.00553192951385
C            3.27869507024846        2.02243117577412        2.95495393593416
C            4.65784508097627        2.00841011166067        2.89289105949281
C            5.28784811923442        1.28916574670601        1.88856083072235
C            4.54195465707427        0.60993820057714        0.94179225374350
O            5.24054785111792       -0.11606421824230        0.00761453885461
C            4.51319918367738       -0.80524419601384       -0.93242715252873
C            5.23050760818516       -1.52480182975504       -1.87146853189586
C            4.57222364701597       -2.21084873419862       -2.88088613290729
C            3.19496413129710       -2.15057396417552       -2.95630297531656
C            2.47236538255264       -1.43424762534760       -2.01440834702485
C            3.11321885907474       -0.77556747815906       -0.97187050868347
C            0.28591529512063       -1.19773608754462        0.11591847931398
C           -1.09993097559321       -1.18484624554448        0.13481953766279
C           -1.83570893365419       -2.44720364616019        0.31898078785708
C           -1.53064631747829       -3.55114283935828       -0.47680685749439
C           -2.20171191816292       -4.74465918045096       -0.30973224251506
C           -3.18742204512158       -4.85142244926241        0.67363060286428
C           -3.87324663265780       -6.07318176315411        0.85427313299555
N           -4.42642659958873       -7.06813160750437        1.00020533100775
C           -3.49086690362381       -3.75427584015411        1.48188890333641
C           -2.81805697763421       -2.56324228873401        1.30104933544757
C           -1.77759393667415        0.03946261181241       -0.00647749465702
C           -3.18870829241610        0.06667980219728       -0.00727879000001
N           -4.33743839508833        0.08858244121383       -0.00793115868405
C           -1.40349555650295        3.61335378490122        0.47708151150036
C           -2.03416239563407        4.82963944664861        0.31665408933716
H           -4.09857348900743        4.01755352461506       -2.25430190484630
H           -2.96817184297341        1.85333931584135       -1.95735825237382
H            0.89128781863189        2.11331777698980       -0.24628903554714
H            1.45221277701787        1.34667444001113        2.08327647239443
H            2.77343320937181        2.55489932578402        3.74600682068742
H            5.24803542512509        2.53748528546974        3.62426274128914
H            6.36321309201409        1.23432147973080        1.82498204059713
H            6.30660562027683       -1.52790323180561       -1.79766082110324
H            5.14001231492630       -2.77216816118581       -3.60592397982206
H            2.66938874881487       -2.65637126784811       -3.75162815129057
H            1.39910917736017       -1.37693396164186       -2.10213321322541
H            0.81069731010515       -2.13352759895068        0.23523387803546
H           -0.77389804208643       -3.46604060767324       -1.24218975762965
H           -1.97169569984566       -5.59704424202397       -0.93158826551862
H           -4.24917884652809       -3.84420471109845        2.24525113142484
H           -3.04572545568775       -1.72164447856186        1.93779822074031
H           -0.65327470884589        3.49724173393673        1.24481557869839
H           -1.77901005073175        5.66910240444603        0.94620739320723
