  56
        -95.50878728
 N         -4.1664533292        7.2432386487       -0.8789470047
 C         -3.6488354878        6.2269235499       -0.7606234903
 C         -3.0050836020        4.9776550765       -0.6091642183
 C         -3.3880382459        3.8937910771       -1.3999660465
 C         -2.7566118895        2.6767223849       -1.2473040094
 C         -1.7379474783        2.5206519903       -0.3090466357
 C         -1.0516949895        1.2295663457       -0.1422394049
 C          0.3332205334        1.1878207441       -0.1332800248
 C          1.0129330234       -0.0216540360       -0.0027413210
 N          2.4129905801       -0.0473266955       -0.0012952532
 C          3.1403730702        0.6913040629        0.9434456022
 C          2.5260419478        1.4140608339        1.9583752499
 C          3.2765174907        2.1319750682        2.8767111303
 C          4.6550494116        2.1280044818        2.8056924288
 C          5.2851850716        1.3759823445        1.8269471944
 C          4.5400073258        0.6551992799        0.9109303690
 O          5.2370022943       -0.1000086889        0.0045935528
 C          4.5160515025       -0.8285711629       -0.9048448918
 C          5.2375073681       -1.5764911169       -1.8180549964
 C          4.5836402431       -2.3041853733       -2.7996239829
 C          3.2062160279       -2.2566415073       -2.8762927456
 C          2.4793073993       -1.5114725856       -1.9607059489
 C          3.1161908460       -0.8124576582       -0.9430865462
 C          0.2873885252       -1.2042983790        0.1276037815
 C         -1.0979371413       -1.1909407159        0.1421121483
 C         -1.8353138810       -2.4539108689        0.3086636625
 C         -1.5116576773       -3.5522357569       -0.4875448205
 C         -2.1914082856       -4.7442440824       -0.3500660203
 C         -3.2055435473       -4.8553012955        0.6023889750
 C         -3.9036833596       -6.0757152019        0.7485614754
 N         -4.4653021095       -7.0683096643        0.8673685890
 C         -3.5255567820       -3.7656394780        1.4132183320
 C         -2.8434437642       -2.5758817076        1.2632018025
 C         -1.7757591458        0.0330248484        0.0025561227
 C         -3.1874320843        0.0592462677        0.0075481661
 N         -4.3354443573        0.0766627105        0.0172066449
 C         -1.3529060715        3.6125042503        0.4685835790
 C         -1.9808355096        4.8321265625        0.3276555785
 H         -4.1762002008        4.0134744074       -2.1279986764
 H         -3.0449670441        1.8445299080       -1.8715121031
 H          0.8943599920        2.1007833321       -0.2660125941
 H          1.4503748679        1.4058646414        2.0459226081
 H          2.7703490762        2.6883977902        3.6503082428
 H          5.2433225259        2.6902021617        3.5130643880
 H          6.3599665109        1.3265806606        1.7588568321
 H          6.3130965970       -1.5673315059       -1.7455792472
 H          5.1534041857       -2.8877393513       -3.5048447859
 H          2.6828788911       -2.7935407036       -3.6522413124
 H          1.4050321500       -1.4630893933       -2.0522397424
 H          0.8122978966       -2.1391129298        0.2566323136
 H         -0.7335961129       -3.4618784509       -1.2319534778
 H         -1.9468470566       -5.5914684946       -0.9733234552
 H         -4.3058122738       -3.8591090731        2.1533904928
 H         -3.0849778859       -1.7384680470        1.9001303103
 H         -0.5679521595        3.4960498988        1.2018757431
 H         -1.6878048007        5.6748014474        0.9361992997
