  46
        -77.55199245
 O         -1.2665298546        0.4448285663        2.2923124872
 C         -1.2673868387       -0.4052077178        1.2570603494
 C         -2.0079717813       -0.3158512341        0.0726668955
 C         -3.0725516979        0.5609539426       -0.2333423993
 C         -3.6593245986        0.4982523453       -1.4727557687
 C         -3.2336578100       -0.4167730600       -2.4404695986
 C         -2.2035198633       -1.3049555266       -2.1533347928
 C         -1.6203177437       -1.2546647476       -0.9137949851
 S         -0.2732356815       -2.1960713386       -0.2821641799
 O         -0.5260463788       -3.5969081784       -0.1126353197
 O          0.9862248740       -1.8425951447       -0.8718874251
 N         -0.3605966459       -1.4404879113        1.2450378752
 C          0.4436323917       -1.8573039456        2.3597134570
 C          1.9151590737       -1.4678846074        2.1910826619
 C          2.1420478394        0.0491511404        2.2497748010
 N          1.6482454676        0.7336723224        1.0858037891
 C          0.5218037523        1.5003108794        0.9902703010
 C         -0.4889834025        1.7348856148        2.0402374359
 C         -1.4371091107        2.8029236877        1.6332952333
 C         -1.5281667945        3.2650799227        0.3562966556
 C         -0.6653011020        2.8354924660       -0.6647281370
 C          0.3670706136        1.9628194509       -0.3233401009
 C          1.4681725730        1.4200378265       -1.0721848841
 C          1.8471453484        1.4993725952       -2.4042708540
 C          2.9930706093        0.8404838091       -2.8011534798
 C          3.7616052011        0.1213433632       -1.8889686537
 C          3.4043385113        0.0286692253       -0.5588601350
 C          2.2432878079        0.6727451413       -0.1588672469
 H         -3.4159795848        1.2543681972        0.5178998339
 H         -4.4729785322        1.1685581503       -1.7075776929
 H         -3.7094320929       -0.4387923558       -3.4077054096
 H         -1.8626155173       -2.0242330340       -2.8819072272
 H          0.3634947658       -2.9484460572        2.4183413427
 H          0.0213059482       -1.4145836540        3.2683858586
 H          2.2615190401       -1.8494806235        1.2287878136
 H          2.4928320180       -1.9399471360        2.9879300764
 H          3.2175141246        0.2476136135        2.3299429383
 H          1.6505629191        0.4630098325        3.1353200344
 H         -0.0716227310        1.9224492539        3.0381483688
 H         -2.1179869082        3.1445600562        2.3964730921
 H         -2.2811617031        4.0030750290        0.1199441764
 H         -0.7768024688        3.1930314522       -1.6741773850
 H          1.2514378108        2.0574457575       -3.1107730984
 H          3.3017033515        0.8781406262       -3.8355353644
 H          4.6539509649       -0.3811192567       -2.2316816409
 H          4.0093866172       -0.5367604806        0.1331473546
