  46
  -77.5519924500000       0.572186291681580      !
 O         -1.2665298546        0.4448285663        2.2923124872
 C         -1.2673868387       -0.4052077178        1.2570603494
 C         -2.0079717813       -0.3158512341        0.0726668955
 C         -3.0725516979        0.5609539426       -0.2333423993
 C         -3.6593245986        0.4982523453       -1.4727557687
 C         -3.2336578100       -0.4167730600       -2.4404695986
 C         -2.2035198633       -1.3049555266       -2.1533347928
 C         -1.6203177437       -1.2546647476       -0.9137949851
 S         -0.2732356815       -2.1960713386       -0.2821641799
 O         -0.5260463788       -3.5969081784       -0.1126353197
 O          0.9862248740       -1.8425951447       -0.8718874251
 N         -0.3605966459       -1.4404879113        1.2450378752
 C          0.4436323917       -1.8573039456        2.3597134570
 C          1.9151590737       -1.4678846074        2.1910826619
 C          2.1420478394        0.0491511404        2.2497748010
 N          1.6482454676        0.7336723224        1.0858037891
 C          0.5218037523        1.5003108794        0.9902703010
 C         -0.4889834025        1.7348856148        2.0402374359
 C         -1.4371091107        2.8029236877        1.6332952333
 C         -1.5281667945        3.2650799227        0.3562966556
 C         -0.6653011020        2.8354924660       -0.6647281370
 C          0.3670706136        1.9628194509       -0.3233401009
 C          1.4681725730        1.4200378265       -1.0721848841
 C          1.8471453484        1.4993725952       -2.4042708540
 C          2.9930706093        0.8404838091       -2.8011534798
 C          3.7616052011        0.1213433632       -1.8889686537
 C          3.4043385113        0.0286692253       -0.5588601350
 C          2.2432878079        0.6727451413       -0.1588672469
 H         -3.4159795848        1.2543681972        0.5178998339
 H         -4.4729785322        1.1685581503       -1.7075776929
 H         -3.7094320929       -0.4387923558       -3.4077054096
 H         -1.8626155173       -2.0242330340       -2.8819072272
 H          0.3634947658       -2.9484460572        2.4183413427
 H          0.0213059482       -1.4145836540        3.2683858586
 H          2.2615190401       -1.8494806235        1.2287878136
 H          2.4928320180       -1.9399471360        2.9879300764
 H          3.2175141246        0.2476136135        2.3299429383
 H          1.6505629191        0.4630098325        3.1353200344
 H         -0.0716227310        1.9224492539        3.0381483688
 H         -2.1179869082        3.1445600562        2.3964730921
 H         -2.2811617031        4.0030750290        0.1199441764
 H         -0.7768024688        3.1930314522       -1.6741773850
 H          1.2514378108        2.0574457575       -3.1107730984
 H          3.3017033515        0.8781406262       -3.8355353644
 H          4.6539509649       -0.3811192567       -2.2316816409
 H          4.0093866172       -0.5367604806        0.1331473546
  46
  -77.5506265300000       0.134835447186830      !
 O         -1.3510795995        0.4427210111        2.2585324998
 C         -1.2337322634       -0.4045109059        1.2339949223
 C         -1.8108429158       -0.2968797816       -0.0387234656
 C         -2.7553982304        0.6484537938       -0.4975396371
 C         -3.1081793147        0.6547191388       -1.8245283408
 C         -2.5681542353       -0.2607656708       -2.7326259656
 C         -1.6805918975       -1.2354890851       -2.2920327865
 C         -1.3316929733       -1.2518871560       -0.9667176916
 S         -0.2278360671       -2.3347778209       -0.1297503691
 O         -0.7418004385       -3.6555653466        0.0927629841
 O          1.1271966145       -2.2590293403       -0.5960384159
 N         -0.3451456842       -1.4536661035        1.3281464671
 C          0.4541829639       -1.7616994208        2.4816903091
 C          1.9298101666       -1.4148973673        2.2575079084
 C          2.1865801493        0.0946519544        2.1624193150
 N          1.5607823120        0.7246087676        1.0295690534
 C          0.4688274986        1.5459787322        1.0524402926
 C         -0.4885643022        1.7261358472        2.1551683124
 C         -1.3922095071        2.8714437016        1.8965010448
 C         -1.5424340104        3.4183342241        0.6592644239
 C         -0.7864993281        2.9934446135       -0.4476302887
 C          0.2199400564        2.0544167574       -0.2298549695
 C          1.2033662562        1.4587330681       -1.0921186775
 C          1.4274876137        1.5156114582       -2.4600771433
 C          2.4660045963        0.7733348073       -2.9850299688
 C          3.2841347477        0.0002247271       -2.1640266792
 C          3.0826266208       -0.0686601629       -0.7999486867
 C          2.0222947388        0.6514598756       -0.2704180958
 H         -3.1849341978        1.3461342417        0.2037569194
 H         -3.8206254818        1.3850261155       -2.1787580543
 H         -2.8508291534       -0.2211703703       -3.7722774403
 H         -1.2662924415       -1.9676471812       -2.9675953284
 H          0.3599991839       -2.8373100239        2.6660213042
 H          0.0420172149       -1.2151172799        3.3369041015
 H          2.2545441871       -1.9000967107        1.3362793062
 H          2.5136696958       -1.8104708943        3.0906447712
 H          3.2673681796        0.2638257775        2.0885629825
 H          1.8260720174        0.5876837709        3.0706781669
 H         -0.0476743109        1.7655317613        3.1573043901
 H         -1.9990318188        3.1984083977        2.7251040990
 H         -2.2625943505        4.2117881890        0.5206750700
 H         -0.9574976394        3.4040934187       -1.4282185716
 H          0.7922658998        2.1164587522       -3.0930485666
 H          2.6496192821        0.7882389969       -4.0491507599
 H          4.0890196896       -0.5668079804       -2.6065235351
 H          3.7190469391       -0.6815225091       -0.1820032870
  46
  -77.5504849600000       0.116076154676336      !
 O         -1.1801293420        0.4606646206        2.2397573735
 C         -1.2731119870       -0.3916071633        1.2062229103
 C         -2.1947540407       -0.3641947688        0.1554894926
 C         -3.3469764539        0.4419747821        0.0195069935
 C         -4.1593951951        0.2726232062       -1.0739612356
 C         -3.8730294146       -0.6770427299       -2.0595353177
 C         -2.7438476691       -1.4808383654       -1.9468343044
 C         -1.9328922877       -1.3227975950       -0.8532219918
 S         -0.4279485870       -2.1492193827       -0.4429396593
 O         -0.5475661551       -3.5609114811       -0.2101029905
 O          0.6826320220       -1.7257078875       -1.2442039394
 N         -0.3102745514       -1.3665705520        1.0688512661
 C          0.4541761377       -1.9137985256        2.1573143734
 C          1.9236977064       -1.4907013436        2.1116439214
 C          2.1062611998        0.0213649952        2.3105908385
 N          1.7512565887        0.7671635297        1.1348951782
 C          0.6170520597        1.4966741565        0.9235109210
 C         -0.4691524314        1.7477944102        1.8965233232
 C         -1.4471315422        2.7286374811        1.3528000106
 C         -1.4460788084        3.1476999421        0.0582520777
 C         -0.4535003010        2.7677485323       -0.8580999609
 C          0.5866413279        1.9610756963       -0.3970633296
 C          1.7904831833        1.4812821036       -1.0207796915
 C          2.3361791991        1.6269035798       -2.2878561262
 C          3.5622796327        1.0476466801       -2.5475845994
 C          4.2438782597        0.3339179039       -1.5646049116
 C          3.7188070311        0.1721451285       -0.2975815184
 C          2.4841120668        0.7473194802       -0.0339657594
 H         -3.5797966983        1.1620535770        0.7876390341
 H         -5.0453254734        0.8819766589       -1.1753882776
 H         -4.5306470623       -0.7887389072       -2.9066154629
 H         -2.5042983060       -2.2189207308       -2.6965266612
 H          0.3861171327       -3.0035291613        2.0669320917
 H         -0.0095689673       -1.5962914550        3.0972057467
 H          2.3381240079       -1.7801621623        1.1440926388
 H          2.4606810095       -2.0229546887        2.8986546909
 H          3.1560299969        0.2316928749        2.5460925281
 H          1.4894060817        0.3623838559        3.1460812833
 H         -0.1065203438        2.0513173785        2.8895813088
 H         -2.2153114822        3.0503093638        2.0382841529
 H         -2.2254475574        3.8186677412       -0.2732679539
 H         -0.4801760236        3.1063325640       -1.8797813224
 H          1.8123594941        2.1823398654       -3.0506164624
 H          4.0050497586        1.1458091844       -3.5276716912
 H          5.2026498702       -0.1045962372       -1.7990550327
 H          4.2611219692       -0.3822694220        0.4536339642
  46
  -77.5500443800000       7.282264745707549E-002 !
 O         -1.1651873577        0.4642175293        2.2063386288
 C         -1.2665251817       -0.3873450381        1.1728320532
 C         -2.2185176651       -0.3794399280        0.1497326630
 C         -3.3702201203        0.4301762846        0.0279035727
 C         -4.2190158129        0.2349622141       -1.0330658176
 C         -3.9707735634       -0.7443140291       -1.9997999105
 C         -2.8425341506       -1.5513793428       -1.9015121802
 C         -1.9941099863       -1.3656452528       -0.8412889403
 S         -0.4886278374       -2.2006758384       -0.4492186586
 O         -0.6271021407       -3.5988793955       -0.1511363292
 O          0.5992100127       -1.8384205451       -1.3094889999
 N         -0.3001755944       -1.3584902194        1.0249741356
 C          0.4574668458       -1.9106665289        2.1170967545
 C          1.9272962334       -1.4887073200        2.0832681336
 C          2.1111279891        0.0204127596        2.3034821818
 N          1.7748262792        0.7814727537        1.1323569814
 C          0.6431123289        1.5115111424        0.9110266188
 C         -0.4573043720        1.7517690612        1.8709027711
 C         -1.4333496712        2.7313100397        1.3197129250
 C         -1.4098518815        3.1691996079        0.0318525776
 C         -0.3960451669        2.8103880548       -0.8696720096
 C          0.6383064681        2.0004542292       -0.4008476372
 C          1.8571088353        1.5371935891       -1.0077268993
 C          2.4318816904        1.7130761466       -2.2582759759
 C          3.6665022333        1.1449014642       -2.5018401299
 C          4.3278278883        0.4111386802       -1.5194668402
 C          3.7741553007        0.2193417109       -0.2688606810
 C          2.5318198147        0.7854642368       -0.0206395078
 H         -3.5736967635        1.1736584702        0.7818731816
 H         -5.1043476953        0.8469627724       -1.1229806423
 H         -4.6567840334       -0.8763238537       -2.8210242209
 H         -2.6323662790       -2.3130194871       -2.6362867227
 H          0.3872221587       -2.9997072995        2.0214672714
 H         -0.0103918110       -1.5967920346        3.0561776423
 H          2.3466760525       -1.7661760404        1.1144873416
 H          2.4592965089       -2.0321057242        2.8659669991
 H          3.1577820421        0.2256250710        2.5563874157
 H          1.4830559408        0.3523919583        3.1340577660
 H         -0.1061279153        2.0558225831        2.8683976617
 H         -2.2155749351        3.0398302416        1.9953386762
 H         -2.1870103513        3.8399985702       -0.3050779824
 H         -0.4030922395        3.1664322337       -1.8857331437
 H          1.9241298365        2.2840107110       -3.0204282920
 H          4.1324645496        1.2683701223       -3.4681123844
 H          5.2935784779       -0.0184371963       -1.7412463399
 H          4.3012449409       -0.3492674049        0.4825206382
  46
  -77.5498554700000       5.962788958980721E-002 !
 O         -1.1557274948        0.4640943197        2.1857151531
 C         -1.2608386540       -0.3885311030        1.1534670657
 C         -2.2214503955       -0.3878790712        0.1386591531
 C         -3.3631884828        0.4348797890        0.0094733673
 C         -4.2223887721        0.2316868053       -1.0415532472
 C         -3.9960461530       -0.7700422227       -1.9905701587
 C         -2.8796270187       -1.5921813502       -1.8836925218
 C         -2.0192063664       -1.3960767374       -0.8350321780
 S         -0.5328463820       -2.2581526370       -0.4295380833
 O         -0.7114198133       -3.6392607519       -0.0761414898
 O          0.5564100927       -1.9668971137       -1.3149839090
 N         -0.3004474468       -1.3665741550        1.0102736234
 C          0.4618740724       -1.9068426311        2.1055312289
 C          1.9319776368       -1.4872500454        2.0594494871
 C          2.1204732849        0.0204123716        2.2854215705
 N          1.7858922537        0.7889930936        1.1188587201
 C          0.6558987658        1.5225989208        0.9009077521
 C         -0.4487653716        1.7523032678        1.8585803652
 C         -1.4234371182        2.7371312731        1.3135180438
 C         -1.3897335995        3.1964489146        0.0334361785
 C         -0.3679047826        2.8538659396       -0.8652358177
 C          0.6622333071        2.0352947159       -0.4018097520
 C          1.8871621913        1.5847048951       -1.0057147723
 C          2.4755155422        1.7882652818       -2.2459253995
 C          3.7137025812        1.2272557656       -2.4879925201
 C          4.3649074063        0.4724558375       -1.5145954846
 C          3.7981191401        0.2534860710       -0.2743637228
 C          2.5530766606        0.8142594811       -0.0267792379
 H         -3.5504947301        1.1961409727        0.7497566942
 H         -5.0997618653        0.8542639754       -1.1365117744
 H         -4.6907814044       -0.9090185547       -2.8031906581
 H         -2.6874127513       -2.3732710447       -2.6028117261
 H          0.3887615272       -2.9966199785        2.0226574526
 H         -0.0003204658       -1.5822371582        3.0437723642
 H          2.3422212748       -1.7617444637        1.0859082968
 H          2.4702240623       -2.0342920387        2.8352561696
 H          3.1680292104        0.2214361357        2.5378196118
 H          1.4946478109        0.3505394952        3.1184444301
 H         -0.0996539416        2.0503897634        2.8589873064
 H         -2.2108116921        3.0344287620        1.9882566447
 H         -2.1649892309        3.8716983704       -0.2989064950
 H         -0.3653904440        3.2289081124       -1.8744757359
 H          1.9757882652        2.3758853294       -3.0006731532
 H          4.1910986569        1.3741554193       -3.4453287303
 H          5.3341186506        0.0500250307       -1.7346332520
 H          4.3176162507       -0.3305895562        0.4703338016
  46
  -77.5495779000000       4.445156940837163E-002 !
 O         -1.1476996111        0.4652414785        2.1741535518
 C         -1.2615722672       -0.3874579903        1.1426687083
 C         -2.2418497648       -0.3950000113        0.1471546294
 C         -3.3916505066        0.4198073589        0.0400535032
 C         -4.2724224166        0.2065454688       -0.9908955078
 C         -4.0596416279       -0.7969919947       -1.9411497935
 C         -2.9348872200       -1.6104382868       -1.8565128188
 C         -2.0531568746       -1.4045479987       -0.8276107262
 S         -0.5522175417       -2.2544826850       -0.4497729163
 O         -0.7144554999       -3.6358147875       -0.0893198610
 O          0.5151852806       -1.9581500293       -1.3594913788
 N         -0.2948310825       -1.3576381555        0.9839333322
 C          0.4632845831       -1.9094707230        2.0774271523
 C          1.9326816697       -1.4863196059        2.0487073456
 C          2.1169047327        0.0193922264        2.2915653285
 N          1.7994088819        0.7966761133        1.1261133080
 C          0.6681072352        1.5236918493        0.8937814288
 C         -0.4456156518        1.7535101864        1.8409889070
 C         -1.4214293774        2.7290177317        1.2809275163
 C         -1.3780190655        3.1823915032       -0.0009169300
 C         -0.3437397301        2.8443957717       -0.8870429727
 C          0.6869681107        2.0347259676       -0.4093727607
 C          1.9222864294        1.5916351293       -0.9976323693
 C          2.5254679691        1.7986675821       -2.2301309364
 C          3.7706762686        1.2462214508       -2.4556766006
 C          4.4143752204        0.4962957701       -1.4735526621
 C          3.8326366793        0.2734866687       -0.2408962193
 C          2.5806267336        0.8258681261       -0.0098647421
 H         -3.5678549342        1.1823803421        0.7816680747
 H         -5.1561841206        0.8224091535       -1.0688403130
 H         -4.7712841982       -0.9441648700       -2.7375693448
 H         -2.7531963713       -2.3927713514       -2.5770033485
 H          0.3932495137       -2.9982229176        1.9799699697
 H         -0.0055532178       -1.5984710734        3.0170401819
 H          2.3535841906       -1.7502476063        1.0768075095
 H          2.4640360683       -2.0405293431        2.8241941275
 H          3.1602513264        0.2189300006        2.5617860682
 H          1.4778498786        0.3418503796        3.1174314898
 H         -0.1050040265        2.0613853684        2.8414826291
 H         -2.2167651902        3.0254186682        1.9466689716
 H         -2.1547027612        3.8504625023       -0.3442421243
 H         -0.3327268958        3.2159097161       -1.8975307553
 H          2.0316451190        2.3822653002       -2.9918207565
 H          4.2594827889        1.3960247933       -3.4067776568
 H          5.3895092497        0.0808890791       -1.6804159254
 H          4.3464349525       -0.3064508270        0.5110135739
