  97
       -139.39867255
 C          6.9777648735       -4.5786807934        3.1051420854
 C          6.1145327398       -3.9963752488        1.9932545340
 C          5.5632003284       -5.0876988478        1.0765559881
 C          4.6786191990       -4.5267340038       -0.0369241795
 C          5.4854777428       -3.8733862941       -1.1603377427
 C          4.6250408091       -2.9039358603       -1.9789131485
 N          4.1248329339       -1.8357179224       -1.1403748176
 C          2.7489858032       -1.6001868801       -1.0635922005
 C          1.9558443963       -1.7248061936       -2.1949195756
 C          0.4853594309       -1.5325036074       -2.1874652633
 C         -0.0702679218       -1.0061175952       -0.8900276030
 C         -1.4006444079       -0.5856609631       -0.9007180611
 C         -2.0392086995        0.2146305118        0.1859161232
 C         -1.5177892089        1.6396053579        0.1300160880
 C         -0.2312224174        2.0921559482        0.2927066234
 C          0.0479557998        3.4487759907        0.1181726508
 C          1.4325212018        3.9127920301        0.2970345978
 C          1.6945416781        4.9546358518        1.1558377376
 C          3.0067900423        5.3574376569        1.4312865733
 C          4.0606505911        4.7120756114        0.8484427792
 C          3.8412161100        3.6638929346       -0.0692989842
 C          4.9164887680        3.0208565619       -0.7174691006
 C          4.6942152264        2.0442370365       -1.6453978298
 C          3.3824490092        1.6677080308       -1.9649162929
 C          2.3189666460        2.2608807491       -1.3439348034
 C          2.5115109280        3.2615855568       -0.3669516522
 C         -0.9891445357        4.3300981837       -0.1837269483
 C         -2.2905016905        3.8812536192       -0.3306612341
 C         -2.5583629200        2.5287622814       -0.1814691445
 C         -3.7951492786        1.7749263942       -0.2782859823
 C         -5.0941475976        2.1779602528       -0.5453958004
 C         -6.0961367476        1.2245521125       -0.5739409477
 C         -5.8209095130       -0.1237980373       -0.3449878961
 C         -6.8929741722       -1.1313383019       -0.4191598599
 C         -6.7579433639       -2.1860421189       -1.2916174643
 C         -7.7698561245       -3.1421314914       -1.4390677381
 C         -8.9208132520       -3.0432214394       -0.7093167692
 C         -9.0920610673       -1.9960341779        0.2194194450
 C        -10.2608285128       -1.8923822531        1.0029016910
 C        -10.4028112772       -0.8930034278        1.9231096736
 C         -9.3719184407        0.0395021860        2.1109237987
 C         -8.2304873252       -0.0279829290        1.3616460729
 C         -8.0635281677       -1.0293919746        0.3813353409
 C         -4.5090141971       -0.5272484258       -0.0906386474
 C         -3.5112285212        0.4190347486       -0.0480547459
 C          0.7514050259       -0.9491826473        0.2125274341
 C          2.1559143415       -1.1974836596        0.1306509967
 S          3.1009921622       -0.9192585532        1.5745117679
 C          4.6646515892       -0.5243796583        0.8349747751
 C          5.5387525690        0.2703059724        1.5527344544
 C          6.8081343748        0.5261504044        1.0628491062
 C          7.1822682167       -0.0107471165       -0.1546656908
 C          6.2956258539       -0.7817747403       -0.8860493280
 C          5.0144111332       -1.0603678745       -0.4077290953
 H          7.3532127567       -3.7881045479        3.7504952132
 H          6.4010109016       -5.2728938781        3.7125439009
 H          7.8280121270       -5.1148526216        2.6883451362
 H          5.2807479322       -3.4442474381        2.4330259207
 H          6.7082623822       -3.2837712971        1.4166848941
 H          6.3898677736       -5.6517857130        0.6378730802
 H          4.9748513052       -5.7816727186        1.6811875132
 H          4.0012829526       -3.7907598840        0.4008486365
 H          4.0644702057       -5.3264599842       -0.4572371326
 H          5.8850527832       -4.6390693425       -1.8278956661
 H          6.3288838043       -3.3295421218       -0.7350628771
 H          3.7626017459       -3.4465341417       -2.3690654312
 H          5.1962177505       -2.5150033897       -2.8313176036
 H          2.4088069778       -1.9370660175       -3.1504124165
 H          0.1987803371       -0.8630909166       -3.0117695592
 H         -0.0209726764       -2.4884844101       -2.4079434018
 H         -1.9703637340       -0.6966175102       -1.8109005292
 H         -1.8397177509       -0.2333973218        1.1662342494
 H          0.5691744755        1.4201755340        0.5578729729
 H          0.8728124706        5.4498671655        1.6534488435
 H          3.1760222537        6.1712660506        2.1214884627
 H          5.0778018560        5.0010031080        1.0718079593
 H          5.9240232472        3.3280887695       -0.4756211436
 H          5.5237968808        1.5680718833       -2.1460307844
 H          3.2136916482        0.9066833337       -2.7129711939
 H          1.3142719134        1.9754370573       -1.6172325135
 H         -0.7639633057        5.3779610832       -0.3219666610
 H         -3.0836539390        4.5755866964       -0.5665430309
 H         -5.3231187730        3.2167870953       -0.7320971899
 H         -7.1113657070        1.5196156068       -0.7983478087
 H         -5.8633692928       -2.2637661835       -1.8932710786
 H         -7.6344731459       -3.9511395428       -2.1422425272
 H         -9.7135612306       -3.7682952933       -0.8267914064
 H        -11.0411129789       -2.6276303910        0.8642025614
 H        -11.3006712347       -0.8213708847        2.5196699881
 H         -9.4843731099        0.8108078979        2.8590668123
 H         -7.4335706778        0.6822379398        1.5251246590
 H         -4.2908490565       -1.5708801028        0.0864231824
 H          0.3564414586       -0.7052777268        1.1862695915
 H          5.2245401056        0.6624084911        2.5079367950
 H          7.4962592656        1.1296322491        1.6337735355
 H          8.1712437303        0.1727270036       -0.5482583161
 H          6.6036683551       -1.1694578094       -1.8444250847
