85
 energy: -138.725729754025 gnorm: 0.000031369558 xtb: 6.7.1 (edcfbbe)
F           -2.51645679921776       -5.92941418571620        1.23879567064043
C           -1.61015583259325       -4.93934154585271        1.12741363678716
F           -1.35741543716810       -4.52388359453452        2.37886965021192
F           -0.47550419828222       -5.53507119243618        0.69930671536077
C           -2.05657395402207       -3.84169837397201        0.20734232396909
C           -2.68477934521494       -4.17512918865251       -0.98729347726108
C           -3.06874059465424       -3.16526860910833       -1.85259711971774
C           -2.82331390457496       -1.84072989253954       -1.53800130023693
C           -2.19646807161935       -1.51381186289802       -0.33842529199045
N           -1.95373854663119       -0.17553703607605       -0.00274602817541
C           -0.77010369772515        0.37575358343198        0.43132312001543
C            0.48794382450550       -0.34577808635695        0.53004639426259
C            0.85231060866750       -1.33162827570707       -0.38851676947297
C            2.06042392433201       -1.97822868923499       -0.27458283896538
C            2.94976693240812       -1.66140778713513        0.75557912332822
O            4.10189609670000       -2.38425802398943        0.76708996410615
C            5.18517077424750       -1.99549786866829        1.59550412171543
C            5.82054672327831       -0.67579926081013        1.15010319424142
C            6.25489732414939       -0.72425399068903       -0.31704888872227
C            6.24425817048786        0.66701192088858       -0.96561358747588
N            4.91454144104832        1.21812654178541       -1.00361036020381
C            4.36673922786391        2.08596583626869       -0.08505890727725
C            4.96910196537621        2.78380945187329        0.95528553917711
C            4.17229037255976        3.59439957946223        1.74084609213962
C            2.80161561240978        3.70908799663303        1.51492886168292
C            2.19640927776172        3.02950946365407        0.47716035859444
C            2.98124728169843        2.22549083083216       -0.33822612471309
C            2.69303898768766        1.40395942971971       -1.47698336016790
C            1.53780038058901        1.15342602343072       -2.20426249008589
C            1.60710177745440        0.28882418839423       -3.27816018295706
C            2.80979658910379       -0.32182723737998       -3.62800986795521
C            3.97354009736948       -0.08322350037716       -2.92272433518684
C            3.91314471393446        0.78804374722921       -1.84305806491828
C            2.59264705025844       -0.67519902200793        1.67101252846502
C            1.37947538402522       -0.02522355848613        1.54924327581809
N           -0.91959734000687        1.64701695648018        0.69956855600482
C           -2.22380424821015        1.96406572374839        0.44809774955131
C           -2.73347734013974        3.30469770430184        0.70425543431028
C           -1.87300731999272        4.39763347109615        0.61370838801205
C           -2.33180115779456        5.67650928139813        0.86517436772438
C           -3.65667413454611        5.88483494222919        1.21291147634385
C           -4.51651358852373        4.80316945428348        1.31816146972836
C           -4.06110664606149        3.52177709460222        1.07052109712814
C           -2.89031654788304        0.84134786820477       -0.00621780832031
C           -4.27397417791475        0.64963554342249       -0.42405585589400
C           -5.04417152889970       -0.39105113378391        0.09270489397278
C           -6.35438735410003       -0.55866450652984       -0.31683434216453
C           -6.91186293568710        0.30639086982337       -1.24389019166536
C           -6.15417502854655        1.34695462148609       -1.75825612078171
C           -4.84413995463786        1.51922603943474       -1.35374039765581
C           -1.81387589597045       -2.51996401975713        0.54419708829435
H           -2.86962281208194       -5.21036341109514       -1.22735026424450
H           -3.55681978464133       -3.41282393389774       -2.78166086641939
H           -3.11120795343271       -1.05507986340408       -2.21934617222556
H            0.20426018052578       -1.57588120722439       -1.21589272171675
H            2.34849444046384       -2.73748872863142       -0.98462994916657
H            5.90006414925861       -2.81626341381673        1.49120909289142
H            4.87041246763953       -1.93713199452798        2.64442764348293
H            5.08634584414285        0.12018696130718        1.27700395792622
H            6.66966624953112       -0.46213101438485        1.80018569249115
H            7.25291354509041       -1.15520565026206       -0.40540711343960
H            5.55941649884631       -1.36308229385857       -0.86529309580155
H            6.62596293372052        0.59824436214585       -1.98900641510656
H            6.88687713507634        1.34945293398280       -0.40620409235944
H            6.02633507890022        2.69885718457722        1.15844430968874
H            4.62153574637583        4.14439098188131        2.55556903214313
H            2.20895079638826        4.33682969590703        2.16453117859171
H            1.13164392137816        3.08556602467131        0.31499237563692
H            0.60873552419559        1.62992276842751       -1.92779061977055
H            0.72053182043102        0.07980300954063       -3.85994268269167
H            2.83271112557468       -0.99565087000477       -4.47271124116295
H            4.89708751161064       -0.56059555880510       -3.21390217970972
H            3.24451616169994       -0.40630943915525        2.48694081525761
H            1.10836949187015        0.74586983243303        2.25344864332135
H           -0.84270947021594        4.22806691322060        0.34196307401485
H           -1.65371438883086        6.51445575977663        0.78828488837324
H           -4.01681511889366        6.88460096072992        1.40753416654431
H           -5.54785980414565        4.95802449260417        1.60149347406790
H           -4.73319093089130        2.68279825050763        1.17368918514782
H           -4.62002706794102       -1.05855035325219        0.82949273689344
H           -6.94260642648487       -1.36631161236712        0.09370834862153
H           -7.93501749618398        0.17253697684972       -1.56205574121646
H           -6.58525924577597        2.02596674402508       -2.47919890229037
H           -4.24952206819781        2.32835124391999       -1.75250300102450
H           -1.33330040109024       -2.26914140196725        1.47735783939379
