85
 energy: -138.635726437499 gnorm: 0.000103759112 xtb: 6.7.1 (edcfbbe)
F           -2.50855980480161       -5.82712146845779        1.84773558366604
C           -1.60736692963240       -4.84286340759141        1.64889731281333
F           -1.32459357610715       -4.35320435898721        2.86937024567592
F           -0.47890730994157       -5.47326126173044        1.24212752861957
C           -2.06938458162570       -3.80955133320888        0.67196787951608
C           -2.73755298357584       -4.22515264824049       -0.48243692615729
C           -3.14375324244983       -3.26260854321902       -1.40035440213591
C           -2.89376780230315       -1.92701049959412       -1.18359143393100
C           -2.21811333642552       -1.50975544321562       -0.02022641922914
N           -1.95354677588551       -0.17287222160802        0.22074724690588
C           -0.73400204444587        0.36477624072993        0.70331654259443
C            0.50596307222374       -0.29283472297105        0.83173608804621
C            0.85212729020709       -1.50701286878133        0.18416485637632
C            2.08798126472129       -2.06336975792125        0.35849841228713
C            3.05509613952706       -1.45844697676824        1.17936450133052
O            4.22520390592774       -2.13193637736650        1.28756441378184
C            5.36447304644885       -1.51404676520016        1.86282784345797
C            5.90125626220190       -0.36726199640558        1.00145580098420
C            6.18433286564180       -0.82364498120320       -0.43215975875026
C            6.04295293256266        0.32727086813424       -1.43774265147932
N            4.69175274645144        0.82232862613148       -1.48524281577210
C            4.20302543066752        1.92498521187176       -0.82303934934261
C            4.87192263092275        2.89049619172665       -0.07899497187113
C            4.12575192165185        3.90725155801954        0.48538300185500
C            2.74340329110346        3.97475989339696        0.32203637446783
C            2.07167174628214        3.02563424632022       -0.42329547327426
C            2.80066014180812        1.99816033345918       -1.00423835418952
C            2.43890004023314        0.87656149530596       -1.82189095042962
C            1.23634151222930        0.42746557261514       -2.34804804947715
C            1.23903459985368       -0.71534177647139       -3.12379535515672
C            2.42254261477000       -1.40627502199595       -3.37463251539066
C            3.63248622160856       -0.97699379274146       -2.86380186194013
C            3.63826104106772        0.17249687987015       -2.08418941688082
C            2.73914886704090       -0.24281096269234        1.80499686833632
C            1.50823917329339        0.32758588378903        1.62089765535148
N           -0.87656733580758        1.67421401353239        0.95125956960370
C           -2.09639791207960        2.03768196213563        0.58800155408173
C           -2.56383634905117        3.38415819916736        0.82656155646709
C           -1.63165910914344        4.42986002295039        0.84534667068627
C           -2.03221828853004        5.72588680697424        1.09032130108392
C           -3.36872163411373        6.00761177508503        1.34059252621671
C           -4.29563494772989        4.97622925511925        1.36095087310189
C           -3.90414514926870        3.67624544883138        1.10931513931397
C           -2.82532701233821        0.89391959421330        0.08246477091313
C           -4.16499482858911        0.83014941086956       -0.39437521341921
C           -5.02578232053637       -0.24911758890261       -0.09520794543596
C           -6.31785939963790       -0.26696641295085       -0.56784270900374
C           -6.79872793731006        0.76879782245838       -1.36147559757326
C           -5.96679804885817        1.84279122106454       -1.66298919035056
C           -4.67728341897821        1.88236117131683       -1.18760520235575
C           -1.80734222113788       -2.47579448106801        0.91114538302181
H           -2.93303097377610       -5.27207585331144       -0.64729564612873
H           -3.65442138621232       -3.57139734286670       -2.29917387861846
H           -3.19395236315034       -1.19107861472503       -1.91259605684746
H            0.16465592703262       -1.97260253254833       -0.50116156846246
H            2.35165374757887       -2.98113274103056       -0.14406887922531
H            6.09797435313913       -2.32249455238574        1.92228443851752
H            5.14470003285866       -1.16290097849675        2.87781224514123
H            5.15432037378687        0.42665227467941        0.98110665767398
H            6.80387671487489        0.02534202348612        1.47042689635468
H            7.18717062994269       -1.24519162864739       -0.50775103155794
H            5.46830388846995       -1.60307188725958       -0.70012570344861
H            6.32407126085817       -0.02178685437107       -2.43605958989473
H            6.70484342981717        1.15102185973997       -1.16423857548796
H            5.94135446490348        2.85619845905394        0.06495781582112
H            4.62577924051749        4.66606100826970        1.06977762770646
H            2.19685551908241        4.78165569567387        0.78758102433121
H            1.00044785290973        3.06211406755207       -0.54649477917468
H            0.32114311896378        0.96721939836594       -2.15371408550049
H            0.31448319994447       -1.08222804845570       -3.54558358071001
H            2.39240454102649       -2.29736715721521       -3.98491884712698
H            4.53950029218960       -1.52264995617484       -3.07491965642837
H            3.45066999067933        0.25010159658250        2.44838583000603
H            1.26165646041571        1.26143057594444        2.09967916022409
H           -0.59629038198648        4.19581350970868        0.65586930530071
H           -1.30435051087176        6.52414465238439        1.08641487071366
H           -3.68325041880163        7.02302841338663        1.53066648458153
H           -5.33212543837589        5.18616759046590        1.58182816706129
H           -4.62827523701158        2.87829212392162        1.16400013126855
H           -4.68249213969186       -1.03888421815764        0.55542106924728
H           -6.96543670968637       -1.09305774222735       -0.31149737968834
H           -7.81017766259268        0.74138820829407       -1.73700791244787
H           -6.33287753318155        2.64923849751536       -2.28175020071558
H           -4.02731742032693        2.70459157261147       -1.44716027888995
H           -1.30470454979461       -2.17038920734180        1.81593649618134
