  85
       -138.68009191
 F         -2.4339239851       -5.9135303567        1.2169184405
 C         -1.5302008762       -4.9236288467        1.1017638430
 F         -1.2612875526       -4.5117780531        2.3490950424
 F         -0.4031051451       -5.5059477941        0.6462548021
 C         -1.9976948075       -3.8189279046        0.1983309176
 C         -2.6373523685       -4.1468941882       -0.9915204355
 C         -3.0440311886       -3.1335325014       -1.8416174512
 C         -2.8087675069       -1.8100101275       -1.5171388889
 C         -2.1685287148       -1.4880639278       -0.3232561768
 N         -1.9303759062       -0.1539118536        0.0166480262
 C         -0.7452017724        0.3994938861        0.4464602864
 C          0.5108509156       -0.3234215985        0.5516036643
 C          0.8708127774       -1.3248277260       -0.3518911966
 C          2.0762029275       -1.9737548297       -0.2270824385
 C          2.9646528470       -1.6459988820        0.7999505200
 O          4.1100112908       -2.3797795885        0.8291855580
 C          5.1939677448       -1.9743932794        1.6398764535
 C          5.8273177325       -0.6663499910        1.1567489678
 C          6.2214603869       -0.7480620675       -0.3197430514
 C          6.1841867188        0.6275820827       -0.9990469092
 N          4.8501868869        1.1631705836       -1.0242235375
 C          4.3104471079        2.0510242108       -0.1204100251
 C          4.9180249017        2.7574451714        0.9102338800
 C          4.1259940870        3.5814694453        1.6869177904
 C          2.7563253593        3.7006719515        1.4606406322
 C          2.1457202748        3.0118364783        0.4324443230
 C          2.9256327886        2.1937643400       -0.3727823028
 C          2.6290372908        1.3508461138       -1.4933518398
 C          1.4692412623        1.0901085466       -2.2088742017
 C          1.5273070914        0.1913552702       -3.2549701462
 C          2.7224139524       -0.4416790474       -3.5890218583
 C          3.8917853771       -0.1893821579       -2.8979025793
 C          3.8428214316        0.7168725795       -1.8476359928
 C          2.6144300541       -0.6400953074        1.6957435927
 C          1.4049077809        0.0139922234        1.5626258100
 N         -0.8948762968        1.6720971970        0.7040668898
 C         -2.1965295106        1.9890843022        0.4497339822
 C         -2.7053472301        3.3323280026        0.6907646784
 C         -1.8469664767        4.4237938670        0.5739686889
 C         -2.3074246598        5.7059413821        0.8031364111
 C         -3.6296342941        5.9179126277        1.1571217208
 C         -4.4856455286        4.8368695711        1.2920425796
 C         -4.0299210606        3.5522059498        1.0650188747
 C         -2.8648730929        0.8638063153        0.0033410782
 C         -4.2491903338        0.6703284804       -0.4042861172
 C         -5.0054169704       -0.3889433298        0.0952073679
 C         -6.3181935983       -0.5573932539       -0.3040767136
 C         -6.8932688303        0.3252463181       -1.2028949876
 C         -6.1500140834        1.3846356737       -1.6989501791
 C         -4.8371941369        1.5573615558       -1.3058173649
 C         -1.7648168390       -2.4990584148        0.5445632097
 H         -2.8139738338       -5.1815729614       -1.2400602679
 H         -3.5417948600       -3.3775366713       -2.7668815129
 H         -3.1141224107       -1.0205990797       -2.1864161141
 H          0.2242396394       -1.5774983872       -1.1777234634
 H          2.3628919061       -2.7438209468       -0.9253600534
 H          5.9096863804       -2.7969361095        1.5552115368
 H          4.8879863980       -1.8870373445        2.6900541912
 H          5.1016634069        0.1365071565        1.2848434170
 H          6.6941804850       -0.4443339684        1.7810325348
 H          7.2178761738       -1.1793071817       -0.4270754655
 H          5.5118146999       -1.3999253845       -0.8324536903
 H          6.5482561489        0.5385849728       -2.0277587506
 H          6.8316278374        1.3290596137       -0.4685335210
 H          5.9754821188        2.6690038061        1.1134559534
 H          4.5795112795        4.1378138787        2.4945525320
 H          2.1686412279        4.3391564590        2.1033884256
 H          1.0814524740        3.0690302442        0.2731417293
 H          0.5462393685        1.5835206144       -1.9450478002
 H          0.6375079245       -0.0284802607       -3.8276475428
 H          2.7359329061       -1.1436285588       -4.4103119136
 H          4.8103480912       -0.6831022563       -3.1781047486
 H          3.2684331351       -0.3591331561        2.5059620599
 H          1.1390304071        0.8010803731        2.2500218300
 H         -0.8183326296        4.2516962920        0.2997189937
 H         -1.6328098167        6.5440944219        0.7050240318
 H         -3.9908411345        6.9202647269        1.3341288697
 H         -5.5145126356        4.9954779603        1.5812722576
 H         -4.6985494270        2.7138939493        1.1903358378
 H         -4.5692328091       -1.0699004549        0.8121227050
 H         -6.8953064069       -1.3797292601        0.0924758037
 H         -7.9186818756        0.1908566871       -1.5126264362
 H         -6.5952568852        2.0777061745       -2.3972377100
 H         -4.2542879557        2.3812363111       -1.6903666753
 H         -1.2724491004       -2.2515128647        1.4716853635
