43
 energy: -65.179228480034 gnorm: 0.000051854962 xtb: 6.7.1 (edcfbbe)
C           -2.31965340777080        3.66434084113012        0.13957748575983
C           -0.93458799855357        3.69310266526375        0.12090633151487
C           -0.22570548711121        2.50509628615552        0.07762468682201
C           -0.87649302892365        1.28108478763129        0.05194385414749
C           -2.27343555703115        1.25652554959062        0.07025826541345
C           -2.98535683854333        2.45535397091694        0.11459170720980
N           -2.94874405199563        0.05768308668289        0.04354312813013
C           -2.31930196954064       -1.16512881869281       -0.00571849508050
C           -3.07574247304074       -2.33689492469960       -0.03294274874801
C           -2.45579308678981       -3.56932064448581       -0.08050603011822
C           -1.07275169430353       -3.64894012984070       -0.10251731403136
C           -0.31979984600766       -2.48788084618044       -0.07606839156945
C           -0.92432581127054       -1.24106279119171       -0.02780347050834
C           -0.06478759227388        0.00451661267034        0.00208207986421
C            0.91148577004132       -0.05459752867991        1.16207807329464
C            0.63217874854381       -0.09822130948509        2.51036024260331
C            1.69190192797320       -0.15424856824039        3.40648794098003
C            3.00310303726721       -0.16624665036038        2.95482727574524
C            3.28893126097549       -0.12311532826596        1.59912824149439
C            2.23568116189504       -0.06713205788389        0.70077657458968
C            2.21841159553695       -0.01647825703013       -0.75399435157809
C            3.24998126134586       -0.00575510359958       -1.67878493947029
C            2.93193748274507        0.04625907028819       -3.02697679574246
C            1.61037068572989        0.08717605160152       -3.44552967750791
C            0.57229610761009        0.07723705690013       -2.52280926203370
C            0.88369929526071        0.02515443314241       -1.18188459990401
H           -2.88264807418377        4.58556754040919        0.17280737563369
H           -0.40817622833569        4.63539833853318        0.13956032846743
H            0.85475169216207        2.52357767494273        0.06242225369268
H           -4.06606842211488        2.42542677753791        0.12831819744313
H           -3.95727516604819        0.07642446428380        0.05634704053324
H           -4.15456009333125       -2.26734425508243       -0.01567815351353
H           -3.05290576730973       -4.46919397006341       -0.10061888607458
H           -0.58212371273713       -4.60983164058359       -0.13948578484247
H            0.75929650719401       -2.54557920367649       -0.09241597471385
H           -0.38912520484530       -0.09011839810894        2.86356887863929
H            1.49220249431665       -0.18882870326984        4.46775462085059
H            3.81227197577752       -0.21020150757495        3.66982739699300
H            4.31198267281381       -0.13334851647380        1.25260464042617
H            4.28101954256287       -0.03734822541901       -1.35817856776777
H            3.72392248843279        0.05496785402129       -3.76222630468824
H            1.38550434902658        0.12694315079162       -4.50158342330135
H           -0.45717598718868        0.10968548651907       -2.84998323353177
