43
 energy: -65.068809002036 gnorm: 0.000052369704 xtb: 6.7.1 (edcfbbe)
C           -2.38582281803419        3.61730288249783       -0.29924983950272
C           -0.99972136624172        3.66245390003119       -0.36550170833203
C           -0.26760455078765        2.48929136141011       -0.31254020315009
C           -0.89525821580533        1.25741970261347       -0.20049029657216
C           -2.29512890472529        1.21718255838573       -0.14055535364657
C           -3.03123207405217        2.40365288370426       -0.18934909649639
N           -2.94541616875167        0.01232411527776       -0.03760952405565
C           -2.30532512020160       -1.20170706775563       -0.07526758152054
C           -3.05121507656068       -2.38293591888364       -0.05964679190025
C           -2.41600520330379       -3.60590650090349       -0.10723959280640
C           -1.03044544686500       -3.66597130706606       -0.17432916485904
C           -0.28853963182391       -2.49779976204681       -0.18410072515209
C           -0.90591158143281       -1.25672494456442       -0.13363365727858
C           -0.07014584252604       -0.00123805928346       -0.08854469632774
C            0.72478329521370        0.03211189787937        1.21043474640275
C            0.26159136841273        0.06591937918391        2.48766839376661
C            1.18410832542562        0.09646259373607        3.55026741768676
C            2.57034830901213        0.09134092485751        3.28989170607472
C            3.06117941333491        0.05602255172301        2.01824961657512
C            2.14494021548243        0.02341579473785        0.91968098019919
C            2.33487444758644       -0.01831272585115       -0.45239664190285
C            3.51636716422972       -0.04883658886182       -1.25896543905630
C            3.39018529713439       -0.09519838552582       -2.61684112992739
C            2.12859942396922       -0.11149992211799       -3.24390839592302
C            0.95005543721286       -0.08089620027899       -2.47223520548376
C            1.04670948751627       -0.03557790449876       -1.11756059137307
H           -2.96074790798213        4.53039249249317       -0.33525133169091
H           -0.49142303413145        4.61047937750920       -0.45374059521169
H            0.81102112057853        2.52224459427702       -0.35578871544545
H           -4.10993662599030        2.35816436227663       -0.14040913318689
H           -3.95594790083488        0.01738559555808       -0.00330801759060
H           -4.12941760991035       -2.32588749015690       -0.01148258907738
H           -2.99840202584323       -4.51486515291877       -0.09396934675241
H           -0.53024389118111       -4.62154818298572       -0.21428496649393
H            0.78967860763090       -2.54179445211978       -0.22878695599801
H           -0.79916716343467        0.07085605335365        2.69894148829556
H            0.83034237632455        0.12439930062416        4.56888076552604
H            3.25194748703801        0.11633288734744        4.12948707500670
H            4.12345391192796        0.05175765456797        1.82424363125393
H            4.48569149034549       -0.03696807600373       -0.78328537109332
H            4.27519625390141       -0.12023743648787       -3.23849269613765
H            2.06534518273733       -0.14758554362864       -4.32012640756899
H           -0.01315707712826       -0.09407165004150       -2.96408531055946
