  38
        -65.56390104
 O         -1.2785691707        2.8250800720       -0.0037993220
 C         -2.3001352406        1.9703331752       -0.0007954078
 C         -3.5925645893        2.4764304634        0.0117078434
 C         -4.6956570647        1.6385270233        0.0149688533
 C         -4.4886112053        0.2589066192        0.0039323592
 Br        -6.0048095064       -0.8971678536        0.0060690538
 C         -3.2334302686       -0.2906809549       -0.0078560743
 C         -2.0904953434        0.5464184637       -0.0088971629
 C         -0.7861761607        0.0295847915       -0.0144488368
 N          0.3371969743        0.8009505702       -0.0154549829
 C          1.3757758410       -0.0210595512       -0.0138348075
 C          0.9337769231       -1.3814727075       -0.0119076165
 C          1.8212777796       -2.4247190375       -0.0055454643
 C          3.1975369179       -2.1096315456       -0.0013612823
 C          3.6882186591       -0.8099935009       -0.0039906134
 C          5.1088019074       -0.5078562280        0.0020520849
 C          6.0978025860       -1.4913010818        0.0082030124
 C          7.4429635932       -1.1700369687        0.0168522616
 C          7.8512602308        0.1620991724        0.0192389755
 C          6.9092409868        1.1571064741        0.0116045956
 C          5.5276079900        0.8562311627        0.0025983544
 C          4.5782339384        1.8900233436       -0.0053290229
 C          3.2195536961        1.6055533834       -0.0122484239
 C          2.7742488859        0.2928466844       -0.0108923849
 N         -0.4326369939       -1.3111608941       -0.0136063499
 H         -0.4305752832        2.3043058861       -0.0101732367
 H         -3.7187511668        3.5469785583        0.0192049540
 H         -5.6948512977        2.0416166162        0.0256661692
 H         -3.1188189678       -1.3628339092       -0.0162710387
 H          1.4975674587       -3.4533665748       -0.0026750774
 H          3.8813983353       -2.9425051466        0.0048401377
 H          5.8259606210       -2.5350260284        0.0069313845
 H          8.1804311534       -1.9586527672        0.0224888434
 H          8.9037360290        0.4037235550        0.0273809693
 H          7.2067631814        2.1955442422        0.0129489269
 H          4.9173495501        2.9147877103       -0.0056030605
 H          2.4908509416        2.4016111138       -0.0178319510
 H         -1.0648529702       -2.0906332267       -0.0129847054
  38
        -65.56361706
 O         -1.2749566098        2.8233023365       -0.0573771149
 C         -2.2958243411        1.9689089340       -0.0147415267
 C         -3.5843539724        2.4752141739        0.0863938820
 C         -4.6866616753        1.6380022355        0.1376104404
 C         -4.4835519694        0.2590386626        0.0785556533
 Br        -5.9989838719       -0.8960948408        0.1455984363
 C         -3.2323065249       -0.2906315785       -0.0237282499
 C         -2.0896857959        0.5454305843       -0.0669816840
 C         -0.7871398173        0.0277291555       -0.1338340004
 N          0.3359617086        0.7990994661       -0.1431577653
 C          1.3745360780       -0.0226560957       -0.1563844326
 C          0.9328971357       -1.3831936748       -0.1618048022
 C          1.8209658672       -2.4260006396       -0.1553295403
 C          3.1966540516       -2.1101599745       -0.1108391342
 C          3.6852278809       -0.8103391216       -0.0811143255
 C          5.1027231894       -0.5064817119        0.0040782319
 C          6.0832582503       -1.4856395401        0.1637593743
 C          7.4256393755       -1.1628972262        0.2473642903
 C          7.8387993681        0.1656192063        0.1699396473
 C          6.9040208748        1.1568955967        0.0215515360
 C          5.5244770126        0.8554613335       -0.0538520165
 C          4.5787901633        1.8866787150       -0.1649407136
 C          3.2198316907        1.6029203280       -0.1921165845
 C          2.7727253416        0.2919765348       -0.1419091836
 N         -0.4337894855       -1.3127487271       -0.1585031079
 H         -0.4282654525        2.3018928273       -0.1041205566
 H         -3.7074033936        3.5454191725        0.1287442491
 H         -5.6822302602        2.0412631946        0.2217990291
 H         -3.1205984402       -1.3624547886       -0.0674262092
 H          1.4982669069       -3.4548741298       -0.1699698375
 H          3.8820300771       -2.9418816342       -0.1025928652
 H          5.8051570346       -2.5252907827        0.2349040878
 H          8.1570410852       -1.9472142773        0.3736822792
 H          8.8894160714        0.4080625630        0.2305110553
 H          7.2052095629        2.1929783608       -0.0329797754
 H          4.9196886878        2.9098986834       -0.2115039576
 H          2.4929758137        2.3981616816       -0.2555421321
 H         -1.0657745933       -2.0923863906       -0.1510457303
  38
        -65.56351616
 O         -1.2786619492        2.8265864732       -0.0748019575
 C         -2.2980411652        1.9707110709       -0.0228077304
 C         -3.5865022177        2.4749504488        0.0890135272
 C         -4.6869293967        1.6358412571        0.1514076591
 C         -4.4820052025        0.2572166200        0.0917210509
 Br        -5.9944140107       -0.9008937582        0.1777987264
 C         -3.2309275139       -0.2903891243       -0.0210507787
 C         -2.0900340664        0.5476515704       -0.0756586129
 C         -0.7874381925        0.0315296545       -0.1536399784
 N          0.3356984661        0.8028976549       -0.1679267652
 C          1.3741609023       -0.0190938386       -0.1848987092
 C          0.9321797740       -1.3795620804       -0.1887606688
 C          1.8193524652       -2.4231365573       -0.1827141175
 C          3.1950019968       -2.1082408020       -0.1345476759
 C          3.6839227594       -0.8086480007       -0.1010857288
 C          5.1006825723       -0.5059796588       -0.0019313130
 C          6.0777562388       -1.4855353879        0.1753126789
 C          7.4189254926       -1.1636726379        0.2789780213
 C          7.8344111320        0.1641194538        0.2031983711
 C          6.9031607172        1.1556073884        0.0350637991
 C          5.5246554763        0.8552190310       -0.0600115835
 C          4.5812570435        1.8866515780       -0.1879687533
 C          3.2221403908        1.6043740552       -0.2245338701
 C          2.7726979063        0.2943972808       -0.1695585057
 N         -0.4343171268       -1.3089839912       -0.1799979559
 H         -0.4313925059        2.3067990117       -0.1235875777
 H         -3.7110296338        3.5449191602        0.1325561802
 H         -5.6825598277        2.0372511850        0.2431327543
 H         -3.1177866052       -1.3620194682       -0.0638575686
 H          1.4955188882       -3.4516159747       -0.1987635293
 H          3.8800921647       -2.9401873017       -0.1259972223
 H          5.7976152917       -2.5246429243        0.2460165366
 H          8.1474465540       -1.9481803365        0.4199282530
 H          8.8838304765        0.4061085790        0.2823400195
 H          7.2062747412        2.1911852737       -0.0179341722
 H          4.9238091389        2.9091465632       -0.2383414099
 H          2.4970047247        2.4003118587       -0.2980306997
 H         -1.0665296338       -2.0884027492       -0.1737829404
  38
        -65.56340514
 O         -1.2802865157        2.8259174568       -0.1360689706
 C         -2.2982523775        1.9702986655       -0.0578197481
 C         -3.5854317040        2.4752762466        0.0658544485
 C         -4.6841268499        1.6364373555        0.1566374515
 C         -4.4788187114        0.2572429930        0.1134670571
 Br        -5.9888410854       -0.8997008835        0.2447525312
 C         -3.2292922971       -0.2911241299       -0.0131279264
 C         -2.0901260913        0.5467866332       -0.0970991479
 C         -0.7884523775        0.0304973521       -0.1865913358
 N          0.3345692436        0.8019964680       -0.2037325788
 C          1.3729814607       -0.0199402385       -0.2216889376
 C          0.9311156823       -1.3804415232       -0.2273886398
 C          1.8186181211       -2.4237536045       -0.2254085986
 C          3.1940487899       -2.1087029499       -0.1730324149
 C          3.6824978073       -0.8091405267       -0.1304318456
 C          5.0981197690       -0.5063618687       -0.0163455473
 C          6.0744273334       -1.4867427462        0.1611623305
 C          7.4136285879       -1.1643992903        0.2863177914
 C          7.8280454263        0.1648481223        0.2325736476
 C          6.8978558681        1.1568769118        0.0617444470
 C          5.5212309285        0.8558004610       -0.0558167553
 C          4.5785258493        1.8875119840       -0.1871169961
 C          3.2202312615        1.6044886346       -0.2414093168
 C          2.7712937593        0.2938240862       -0.1993515886
 N         -0.4353581915       -1.3099971003       -0.2155068504
 H         -0.4332333742        2.3059311160       -0.1850873194
 H         -3.7104032988        3.5457211933        0.0948861121
 H         -5.6784382089        2.0384663919        0.2598416605
 H         -3.1155371727       -1.3632610162       -0.0401411074
 H          1.4951751881       -3.4522896289       -0.2454049801
 H          3.8792856531       -2.9405748633       -0.1659194569
 H          5.7949140790       -2.5269620617        0.2162358968
 H          8.1413975337       -1.9496148133        0.4277360315
 H          8.8759768329        0.4072878039        0.3286219993
 H          7.2001935937        2.1933941381        0.0241154977
 H          4.9207555611        2.9106386468       -0.2250640785
 H          2.4951176994        2.4003551898       -0.3159788527
 H         -1.0676119928       -2.0894135769       -0.2122315091
  38
        -65.56321296
 O         -1.2821102926        2.8267317619        0.1619577729
 C         -2.2984783577        1.9707373563        0.0683954197
 C         -3.5835102788        2.4751667680       -0.0770413388
 C         -4.6801231906        1.6359149379       -0.1859678487
 C         -4.4752306035        0.2567819537       -0.1379589840
 Br        -5.9814894633       -0.9016983683       -0.2961200043
 C         -3.2277606807       -0.2910410850        0.0096419663
 C         -2.0904330080        0.5473825240        0.1108917047
 C         -0.7897234200        0.0314179347        0.2166178090
 N          0.3331132929        0.8029403246        0.2408174326
 C          1.3714612132       -0.0190454440        0.2616820851
 C          0.9295591174       -1.3795884218        0.2648658627
 C          1.8168584726       -2.4231320292        0.2615620166
 C          3.1920805540       -2.1081819685        0.2024384531
 C          3.6798946381       -0.8086244305        0.1559388010
 C          5.0938259788       -0.5056090317        0.0243674797
 C          6.0649451526       -1.4843396649       -0.1868269570
 C          7.4022243276       -1.1617175996       -0.3308168232
 C          7.8196174390        0.1659813282       -0.2620232479
 C          6.8940794121        1.1564774247       -0.0592279065
 C          5.5190403541        0.8554228601        0.0758884707
 C          4.5790785158        1.8860816676        0.2324323976
 C          3.2207219726        1.6039705542        0.2927263108
 C          2.7698579313        0.2944635850        0.2383735060
 N         -0.4368783411       -1.3090197749        0.2490180704
 H         -0.4354400202        2.3072672745        0.2195707139
 H         -3.7083356894        3.5455106259       -0.1091737300
 H         -5.6728695565        2.0375614582       -0.3051659902
 H         -3.1141713091       -1.3631020301        0.0400007851
 H          1.4932506283       -3.4516011414        0.2825459674
 H          3.8777664142       -2.9397037014        0.1929942311
 H          5.7820495995       -2.5228805251       -0.2555896115
 H          8.1257688552       -1.9450854614       -0.5005623701
 H          8.8658185386        0.4087358439       -0.3743921224
 H          7.1986900588        2.1918682844       -0.0107816575
 H          4.9227555942        2.9083391721        0.2801830627
 H          2.4972026499        2.3998680378        0.3814941427
 H         -1.0691304171       -2.0884388080        0.2428987619
