93
 energy: -135.009371687268 gnorm: 0.000027788010 xtb: 6.7.1 (edcfbbe)
C            0.89967202438352       -0.21976706818704        4.98792780557781
C            0.24270209344061        0.10040851524983        3.68544274513318
C           -0.97360844291595        0.78985653475543        3.65645082695937
C           -1.58506860126845        1.09964801601553        2.46668170005089
C           -1.00074583879030        0.72872034328051        1.24477038845748
C            0.22425538939260        0.04167471122131        1.26147884404821
C            0.81843289942913       -0.26026185448093        2.47749207832814
C            0.89439285224748       -0.41356239814555       -0.00827174612016
C            2.33037805355880        0.07981394137009       -0.00954663040176
C            2.54206073833595        1.44676499175080       -0.07259398462644
C            3.81878491437786        1.98028296055460       -0.06224650839368
C            4.93089495666582        1.13642391828070        0.02134435665732
C            6.29629199416433        1.68480608980297        0.03068045822365
C            7.26620485010522        1.16420230444920        0.88461317937990
C            8.54891206714597        1.68067602231850        0.89181179101981
C            8.88560116490630        2.72291483975269        0.04357994384761
C            7.92985824452643        3.24668570829876       -0.81134133100258
C            6.64556536203663        2.73427271591347       -0.81674724685489
C            4.72403390706945       -0.22817492872976        0.08967015419695
C            3.43216390510587       -0.78129446241617        0.07150015593624
C            3.29691444334310       -2.22508290459872        0.13290876711908
O            4.31338435243915       -2.97863634584773        0.23739547895121
C            1.96066236960974       -2.74847681696463        0.05870684035980
C            1.77456727551547       -4.14995053472106        0.06852122978723
C            0.52777039519073       -4.70550561783230       -0.01508740578377
C           -0.61624349633094       -3.89941932029933       -0.12328366949679
C           -1.95594694460982       -4.46964254833245       -0.23142292968024
C           -2.29620778575441       -5.64811305702823        0.43955459300585
C           -3.56659981790927       -6.18053703784000        0.33925565981418
C           -4.53104372450772       -5.55279521938404       -0.43383145652511
C           -4.20820820107243       -4.38614332659898       -1.10927789381571
C           -2.93887848021024       -3.85116564143213       -1.01083314740194
C           -0.43036285323855       -2.51277085811785       -0.12528536609693
C            0.81807517681637       -1.93859898682785       -0.03315111595996
C            0.19243394949672        0.09473515054268       -1.23837237808842
C            0.75419701219260       -0.16073175103770       -2.48043977680579
C            0.13718284444856        0.22721862016295       -3.65897291053494
C            0.75016703640525       -0.05531953317776       -4.99133332641922
C           -1.09501791416843        0.88333319263152       -3.57285024976081
C           -1.67402812733338        1.14931401514754       -2.35649470539706
C           -1.03712580730379        0.77010824302662       -1.16349721304786
N           -1.61334448485414        1.04960263187133        0.05484058114050
C           -2.88494272686316        1.69717754514318        0.08691258335668
C           -2.97450262774703        3.07602174071753       -0.05259957754764
C           -4.21171795275952        3.68852237172356       -0.02041456059185
C           -5.38665559623316        2.95675392912413        0.14837777106053
C           -6.72199623010970        3.68242533070157        0.17707796710373
C           -7.90645957122378        2.73104187280740        0.37115999324802
C           -6.91489309248180        4.42471763796045       -1.15392275242503
C           -6.71719346214606        4.68687626188710        1.33933186706916
C           -5.27291198270464        1.57766200574610        0.28627469131152
C           -4.03958446173594        0.94946393394018        0.25830731961040
H            0.18289742816155       -0.65864270313575        5.67989236335211
H            1.72702880936593       -0.91036424730851        4.84737718824857
H            1.28521719482367        0.69231142709126        5.44451171849906
H           -1.43793819060783        1.08384401404845        4.58578646883929
H           -2.52133156542157        1.63483192269401        2.46755692877889
H            1.75706857742319       -0.79564326988412        2.46839680650256
H            1.68822362837551        2.10854368723310       -0.12770358535207
H            3.95480126978554        3.05049469910172       -0.09398348485317
H            7.00504089083738        0.35764301285486        1.55498346562212
H            9.28912430060710        1.26834512675925        1.56280260284948
H            9.88882157427758        3.12372501852799        0.04827642564436
H            8.18764190735091        4.05661640142896       -1.47888762701819
H            5.90839850094452        3.13539941079420       -1.49733465474432
H            5.55520112600002       -0.91786412120175        0.13462898049299
H            2.66311758661978       -4.76262673932762        0.13592953522245
H            0.42872461737371       -5.78158841818475       -0.02943414752135
H           -1.56002785901655       -6.13597904444842        1.06217949569911
H           -3.80934554294555       -7.09009849004410        0.87103980694682
H           -5.52400747239555       -5.97109252618428       -0.51134463698673
H           -4.95100798589466       -3.89536613009359       -1.72273364430006
H           -2.69142023680950       -2.95798696451291       -1.56710039105727
H           -1.29897374349089       -1.87178382714975       -0.17314016428248
H            1.69984520848866       -0.68278343831411       -2.51417096820050
H            0.83664435523388        0.86214575875394       -5.57196066149194
H            1.73641579654489       -0.49800511416738       -4.88069653590788
H            0.12071923871524       -0.74415661582653       -5.55474669757403
H           -1.59949099134864        1.18338180308343       -4.47908704873891
H           -2.62720653473626        1.65199390299661       -2.31418579218090
H           -2.07569573269263        3.66009712230230       -0.18385225114599
H           -4.25259474432588        4.76083110754449       -0.12893969954476
H           -7.97089950703059        2.01203631498903       -0.44236963200471
H           -8.83105700950529        3.30444772560627        0.38361187312722
H           -7.83179391445889        2.19790117573992        1.31623047350513
H           -6.13681124144979        5.16578331816473       -1.31416231785722
H           -7.87542271996371        4.93514097296884       -1.15896335883804
H           -6.89499733500059        3.72143274368252       -1.98420934055457
H           -6.55392517129008        4.17081966340190        2.28348642945017
H           -5.93743435479539        5.43360407986581        1.21850542863071
H           -7.67432834009050        5.20113698204509        1.38991224744904
H           -6.14779271292558        0.96396502591071        0.41912321388811
H           -3.97262546020768       -0.12254705498859        0.37129532387628
