93
 energy: -135.009145801045 gnorm: 0.000055038668 xtb: 6.7.1 (edcfbbe)
C            1.06099591752382        0.06885155322798        4.98031377383423
C            0.38698440026944        0.35214066958000        3.67794038879972
C           -0.84627069642179        1.01094011848326        3.64995408359713
C           -1.48193266116263        1.27509190941408        2.46186545259566
C           -0.90512715044437        0.88726882544689        1.24200344278801
C            0.33610389755285        0.22990233776882        1.25712615960897
C            0.95433183606708       -0.02683768364188        2.47150649674173
C            0.97779781694979       -0.26092399458897       -0.01376852470820
C            2.44716043383218        0.11262311766525       -0.01430314908583
C            2.76787785041336        1.45999909145922       -0.03260303906476
C            4.08333263944838        1.88887530501691       -0.02813785187184
C            5.12522586813507        0.95643370402469        0.00267745258131
C            6.53045442253704        1.39303157384888        0.00504375007899
C            7.46931156396930        0.76366565987725        0.81956933574132
C            8.78931412199776        1.17560907989309        0.82158928265348
C            9.19488425946686        2.22005782522315        0.00690445141061
C            8.27059898315755        2.85108674918845       -0.80926801191396
C            6.94935383055754        2.44317334077369       -0.80933785505487
C            4.80993695694712       -0.38898473624190        0.02610570080537
C            3.47774547678130       -0.83563530526664        0.01440782823754
C            3.22627222664723       -2.26560660847535        0.03122452274563
O            4.18141962655780       -3.10031994308797        0.08064107613710
C            1.85088328112454       -2.67629346882792       -0.01497991947691
C            1.55308068787606       -4.05879268776843       -0.02703224905403
C            0.26472690049285       -4.51284691989720       -0.08074319281831
C           -0.81447433616939       -3.61665064679844       -0.13597232454831
C           -2.19883705657344       -4.07440348855017       -0.20494187403517
C           -2.60748827342705       -5.24048601318847        0.44985642970306
C           -3.91978615391558       -5.66639256746097        0.38948938059079
C           -4.86089468372702       -4.94071326404504       -0.32458613599112
C           -4.47129873645370       -3.78492168215857       -0.98325951905830
C           -3.15953472707712       -3.35717259342955       -0.92577064862593
C           -0.51778755682164       -2.24952048520444       -0.11946691117654
C            0.77401280225300       -1.77665023664801       -0.05564173662884
C            0.31095783923879        0.30437293466443       -1.23945161781161
C            0.90443367813935        0.11105485669660       -2.47758545278246
C            0.30218839159253        0.52957104660167       -3.65371526856359
C            0.95056491443237        0.31086997684328       -4.98134523953962
C           -0.95090565071688        1.14414444852678       -3.57004892971336
C           -1.56253547450743        1.34697806947362       -2.35716729726847
C           -0.93696176197585        0.94682788725340       -1.16559750580838
N           -1.53912522149658        1.17035121185479        0.05282090696946
C           -2.87405070295536        1.67130145220825        0.09066029775598
C           -3.13766216756034        3.01887455317577       -0.10283678314542
C           -4.44254420737010        3.47999686130091       -0.06798352599081
C           -5.51041163142364        2.61740182270084        0.15656398872578
C           -6.95635619774737        3.08471709142846        0.19698270581132
C           -7.74257938099372        2.36340505288512       -0.90827107697869
C           -7.09557683293122        4.59413315286164       -0.02180651757179
C           -7.55394333936468        2.74132386981447        1.56985146696924
C           -5.22091796100678        1.26750055819368        0.35096297078196
C           -3.92464153422351        0.79310786594772        0.32293221247373
H            0.44073400585905       -0.58961074862142        5.58816222075775
H            2.02573797921925       -0.40663618619514        4.82488708626545
H            1.20850010857545        0.99198416992281        5.53956158969383
H           -1.30339037670462        1.31873936848616        4.57836336631902
H           -2.42889441173570        1.79142369929032        2.46180587259759
H            1.90514012111684       -0.54006652093453        2.46366435354385
H            1.96839249736460        2.18857231853669       -0.04792008687109
H            4.30463016676387        2.94527443952596       -0.02421091218745
H            7.15530644338633       -0.04517624432936        1.46404023728014
H            9.50473778988764        0.67961433528419        1.46215444169934
H           10.22695890633082        2.53930390552252        0.00757548332013
H            8.58170999105764        3.66330874091201       -1.45081233260282
H            6.23611943919471        2.92800849044677       -1.46031156081611
H            5.58344513568328       -1.14411507713474        0.03003011864148
H            2.39231885041863       -4.74031024451841       -0.00007804524562
H            0.08014028270898       -5.57721226667453       -0.11302540348437
H           -1.88936789389371       -5.80357702591041        1.02845371927729
H           -4.21363414064880       -6.56909276672167        0.90698728390892
H           -5.88693158986078       -5.27561375479556       -0.37030439580796
H           -5.19533955429201       -3.21779850358814       -1.55167305838445
H           -2.86411861626433       -2.47170123830948       -1.47067280208547
H           -1.33631575774813       -1.54530961854063       -0.13039909477020
H            1.86200668657041       -0.38866481969409       -2.51275243379117
H            0.93127496974563        1.22525531039661       -5.57192780430871
H            1.98049566346161       -0.01515100115399       -4.86284775155642
H            0.40887078664745       -0.45428101630796       -5.53825310891467
H           -1.44663173306522        1.46191568206009       -4.47505089069162
H           -2.53182826477198        1.81787104865866       -2.31807995494424
H           -2.32114750683574        3.70387702910337       -0.27767028830696
H           -4.61005050978512        4.53294598401474       -0.21987503171342
H           -7.31510377133710        2.58683200592301       -1.88386484404025
H           -8.77894904392790        2.69374043609861       -0.90335407687182
H           -7.72957900259829        1.28608724798541       -0.76826238867114
H           -8.14758410481411        4.86865976460011        0.01946748268507
H           -6.71267886325589        4.88754915332916       -0.99657024754116
H           -6.57444699799406        5.15284248877038        0.75229530264311
H           -7.54676163963393        1.67028409041540        1.75173700110429
H           -6.98633367684982        3.22674442508529        2.36141642523569
H           -8.58384619978800        3.08722601818431        1.62391729968199
H           -6.01654031858295        0.56126703630582        0.52834990336626
H           -3.72265375107128       -0.25630271960721        0.48006425323631
