93
 energy: -135.083457813594 gnorm: 0.000036758116 xtb: 6.7.1 (edcfbbe)
C            1.36117043841414       -0.47898116040488        5.00099343636395
C            0.67945117661162       -0.18718775537869        3.69842457870197
C           -0.59810396634185        0.36063538548042        3.66652104721287
C           -1.23451044290765        0.61369370038759        2.47044226950796
C           -0.61395509813917        0.32788466994190        1.25048257342386
C            0.66752333953778       -0.22549546806744        1.27287771229258
C            1.28913678534879       -0.47359383895675        2.48711307776898
C            1.40885430576831       -0.59055349538892       -0.00377752076139
C            2.71451149586462        0.16345787036200       -0.01482592271589
C            2.68189002259848        1.55138673417274       -0.10684384660767
C            3.84267667563121        2.29533300017320       -0.10780412085894
C            5.09045813939776        1.67426308768706       -0.00838577378746
C            6.33066712241509        2.46541699464043       -0.00429509011852
C            7.37328497493066        2.14410124003079        0.86214573302676
C            8.53637808376411        2.89199045058801        0.87030550399173
C            8.67870812993260        3.96860951122719        0.01016282457791
C            7.64996558664244        4.29365846692271       -0.85866130078618
C            6.48357646122570        3.55079643669176       -0.86438158711533
C            5.12464153386246        0.29269390272949        0.08996760368672
C            3.95470973395786       -0.46879871662633        0.08645029874188
C            4.07723200096850       -1.93400143443428        0.18961759916380
O            5.16670764830282       -2.47993817150140        0.34351126347358
C            2.83122855924764       -2.70681645446712        0.09162492271116
C            2.90520154350259       -4.10430925032581        0.09553851047320
C            1.77217933135938       -4.87588003361304       -0.00463539175660
C            0.51741074228277       -4.26822528098595       -0.11043123985757
C           -0.70505655868678       -5.07353493239452       -0.23948705621391
C           -0.87903819685602       -6.23349235456497        0.51289171073100
C           -2.03167718936783       -6.98701704930523        0.38605038831722
C           -3.02437709611874       -6.59863058400606       -0.49876724937092
C           -2.85988362544430       -5.44887752055281       -1.25416227217252
C           -1.71186093919089       -4.68923260705557       -1.12393061250666
C            0.44630679800916       -2.88064210234585       -0.10298263295179
C            1.58281921641671       -2.09028564670036       -0.00917895455195
C            0.61991917619700       -0.20780574265235       -1.24298661148232
C            1.19662787277621       -0.44116427629677       -2.48158315372067
C            0.54233957714366       -0.14066053770846       -3.66709965595699
C            1.19969668546903       -0.38136067939332       -4.99250501216919
C           -0.73061135439200        0.41016175443287       -3.58197079469927
C           -1.32285895567140        0.65043802849605       -2.35976645304927
C           -0.66027236359724        0.34517233068256       -1.16748633899116
N           -1.26332300220765        0.58764010191398        0.05530619317887
C           -2.57500762810816        1.14553747829889        0.08402535383959
C           -2.75250591960974        2.52095181324182        0.15389621932425
C           -4.02720834660802        3.05175345643909        0.18003321364673
C           -5.15850310381718        2.23838715605027        0.13673600755687
C           -6.53937964849984        2.87567115859488        0.16439647299458
C           -7.66854435606502        1.84199890809469        0.11250353706793
C           -6.68409754186512        3.80491393998517       -1.05021642704286
C           -6.69111906228643        3.68574625306665        1.46063674349260
C           -4.96092902738031        0.86396182437371        0.06761209222773
C           -3.68782299544877        0.32013264644021        0.04217073685829
H            1.22100146313855        0.34217825747272        5.70167766860803
H            0.94104192850432       -1.37920841367180        5.45164011653737
H            2.42674952894752       -0.63812489245470        4.85292889645663
H           -1.10308484332946        0.59311087485143        4.59311269212285
H           -2.22702320220391        1.03760728468034        2.47369186416905
H            2.28155603385332       -0.90457415352309        2.48012886565646
H            1.72557022566716        2.04905739823355       -0.17802759708940
H            3.78820707261073        3.37239886215509       -0.16618778126575
H            7.26113496487018        1.31363930575186        1.54433971934402
H            9.33504742608417        2.63454466307184        1.55123366260652
H            9.58851882322868        4.55091859746691        0.01616854600193
H            7.75813869243141        5.12863771495731       -1.53598803348129
H            5.69087662997790        3.79852160175823       -1.55553139758817
H            6.06562532183540       -0.23544603603948        0.15374131628614
H            3.88384837978225       -4.55673121766360        0.17280516819374
H            1.85111016683797       -5.95253378879571       -0.02325169400010
H           -0.11481160249750       -6.53227618135379        1.21561722592798
H           -2.15635627938909       -7.88105609458880        0.97991016716285
H           -3.92218043466528       -7.19066044781256       -0.60002007047368
H           -3.62899481583223       -5.14408512579725       -1.94931327293342
H           -1.57881577836227       -3.80352460910840       -1.72887003574754
H           -0.51896619323586       -2.39992501515262       -0.16027186555817
H            2.18774001784409       -0.87378775655962       -2.51487991725690
H            0.45742768953124       -0.57159187897642       -5.76456344098002
H            1.77809764924583        0.49540079201371       -5.28812375191983
H            1.88007534200621       -1.22861855859916       -4.93834971852603
H           -1.26956782803533        0.65562723240493       -4.48586208772998
H           -2.31270455193274        1.07879578903965       -2.32211174683340
H           -1.88870538936024        3.16902391309609        0.18889089549467
H           -4.13348397758167        4.12427928584220        0.23428811578568
H           -7.62465240125526        1.25817017552379       -0.80416177774708
H           -8.62815574307367        2.35447297523020        0.13720369866700
H           -7.62564971145620        1.17076383263628        0.96731038969095
H           -7.67502357248385        4.25383766009174       -1.06034689733686
H           -6.55088672360605        3.24316991799878       -1.97286300568789
H           -5.94936512819564        4.60504762339461       -1.02891748673589
H           -6.56859461906256        3.03793267894149        2.32663350487770
H           -5.95306655917204        4.48070378248002        1.52241549080213
H           -7.68033374179319        4.13642792689470        1.50498384749810
H           -5.79991926180025        0.18903157170684        0.03312444001117
H           -3.55605273706133       -0.75105575559585       -0.01048031813978
