  78
  -136.335547651200       0.249007712702259      !
 F         -8.9840226622       -1.4270545913        0.3214048317
 C         -7.8226329716       -0.7478873562        0.1719834870
 C         -6.6229075182       -1.4305095960        0.3121055137
 C         -5.4147734685       -0.7548742275        0.1573816250
 N         -4.2401891414       -1.3851304928        0.2293531706
 C         -3.0950453215       -0.7227591406        0.0858010923
 C         -1.8506785390       -1.4838722418        0.0662665831
 C         -1.6704312510       -2.5496306905        0.9504037089
 C         -0.4728914691       -3.2332770548        0.9928305018
 C          0.5627881448       -2.8719902339        0.1371395958
 N          1.8210154980       -3.5189789309        0.2111858004
 C          2.9326939416       -2.8118074142        0.6550600858
 C          2.8388061968       -1.5084147314        1.1327512018
 C          3.9680869391       -0.8315136163        1.5616995811
 C          5.2066742980       -1.4447118012        1.5277641049
 C          5.3142638741       -2.7523140055        1.0807582485
 C          4.1897655424       -3.4370380883        0.6549100819
 O          4.3586785879       -4.7333397658        0.2497434616
 C          3.2471267264       -5.4283323786       -0.1490628277
 C          3.4273103276       -6.7446530327       -0.5348456405
 C          2.3484553171       -7.4948092159       -0.9757357437
 C          1.0930994682       -6.9183431042       -1.0410620882
 C          0.9043804249       -5.6022401299       -0.6542971652
 C          1.9719800206       -4.8425546206       -0.1878950992
 C          0.3692894971       -1.8545903265       -0.7938171379
 C         -0.8260976828       -1.1724948640       -0.8333599601
 C         -3.1124829226        0.6808613577       -0.0657485642
 C         -1.8806091774        1.4654340877       -0.0515851187
 C         -0.8737577115        1.2018981393        0.8820246996
 C          0.3131255676        1.8988733619        0.8444848642
 C          0.5181769374        2.8784706896       -0.1247339551
 N          1.7672375490        3.5393831165       -0.1979295775
 C          1.8730329088        4.9038092871        0.0560715085
 C          0.7755955918        5.6798572148        0.4144164958
 C          0.9190522450        7.0362387913        0.6529677320
 C          2.1589367790        7.6393608894        0.5469211032
 C          3.2679218250        6.8753708715        0.2201719975
 C          3.1327315577        5.5187074288       -0.0159531043
 O          4.2739655745        4.8166477990       -0.3009780244
 C          4.1513473865        3.4789711187       -0.5622303074
 C          5.3077624918        2.7864970228       -0.8757769918
 C          5.2504650217        1.4366164531       -1.1838797436
 C          4.0295074356        0.7884830219       -1.1947749016
 C          2.8692414064        1.4729450640       -0.8744164375
 C          2.9116506863        2.8209341422       -0.5317698567
 C         -0.5007431056        3.1881128208       -1.0204081016
 C         -1.6923383772        2.4937693669       -0.9757330754
 N         -4.2698585553        1.3190827408       -0.1993802443
 C         -5.4316244912        0.6625048370       -0.1229444496
 C         -6.6536166158        1.3125209776       -0.2694214645
 C         -7.8383058340        0.6045074879       -0.1229098230
 F         -9.0148267975        1.2585866865       -0.2661520070
 H         -6.6244974616       -2.4856707168        0.5263967064
 H         -2.4750912972       -2.8133563784        1.6190076322
 H         -0.3258436483       -4.0382429122        1.6979571550
 H          1.8741970518       -1.0269823017        1.1679562873
 H          3.8734172447        0.1806508418        1.9227697069
 H          6.0873105524       -0.9161220954        1.8554171458
 H          6.2630459414       -3.2638621809        1.0587422397
 H          4.4208515792       -7.1605921672       -0.4875781793
 H          2.4960609194       -8.5204261037       -1.2740713414
 H          0.2498555075       -7.4891183693       -1.3974607368
 H         -0.0750506946       -5.1550262933       -0.7195291200
 H          1.1638212503       -1.6099411473       -1.4840123284
 H         -0.9770638124       -0.3994417462       -1.5712795300
 H         -1.0328693297        0.4526665330        1.6427390907
 H          1.0927568628        1.6937637694        1.5636464102
 H         -0.1928896760        5.2156016128        0.5133106982
 H          0.0521953072        7.6177962275        0.9253355705
 H          2.2708791084        8.6966164712        0.7266099658
 H          4.2512885867        7.3113794955        0.1479043824
 H          6.2408979848        3.3264843559       -0.8791411354
 H          6.1552266171        0.9020364144       -1.4245388406
 H          3.9729862404       -0.2574408774       -1.4531129392
 H          1.9200874836        0.9611523813       -0.8922670354
 H         -0.3452582662        3.9606653613       -1.7591546344
 H         -2.4827649843        2.7193714433       -1.6745336534
 H         -6.6784726396        2.3674402637       -0.4835522098
  78
  -136.335521570500       0.242229447830456      !
 F         -8.8341658242       -1.1887499096        0.2982849406
 C         -7.6429341520       -0.5478810565        0.3548967843
 C         -6.4777952971       -1.2777408230        0.1660760804
 C         -5.2409213058       -0.6416649558        0.2242280931
 N         -4.0935852201       -1.3150717571        0.1051674501
 C         -2.9202958474       -0.6909987559        0.1558925123
 C         -1.7131852185       -1.5113042511        0.1472351460
 C         -0.6495513478       -1.2413296409        1.0124915215
 C          0.4744555558       -2.0377077735        1.0089031017
 C          0.5637581225       -3.1190004422        0.1345638407
 N          1.7240982925       -3.9268164310        0.1231026011
 C          1.6485469173       -5.2793248646        0.4506137097
 C          0.4621781047       -5.8823971662        0.8567432767
 C          0.4239589603       -7.2324278911        1.1618043925
 C          1.5692572349       -8.0029321435        1.0793360120
 C          2.7670741417       -7.4114603319        0.7119193433
 C          2.8126094484       -6.0621008543        0.4080487136
 O          4.0354387774       -5.5367208319        0.0853646804
 C          4.0951251228       -4.2058561652       -0.2263998981
 C          5.3362652842       -3.6926185111       -0.5601068529
 C          5.4660893150       -2.3615509886       -0.9225001281
 C          4.3455342944       -1.5527394738       -0.9671382437
 C          3.1019975428       -2.0576340944       -0.6256797031
 C          2.9568211329       -3.3840434270       -0.2294980487
 C         -0.4980018133       -3.4040438214       -0.7199042632
 C         -1.6288010996       -2.6152487706       -0.7030174851
 C         -2.8769993369        0.7147844945        0.2603165336
 C         -1.6457524271        1.4838543197        0.1210989260
 C         -1.4568829491        2.6249316554        0.9048190207
 C         -0.3216699330        3.3939332490        0.7655030995
 C          0.6424786844        3.0488850193       -0.1777498725
 N          1.7927009420        3.8567208587       -0.3435849179
 C          1.6665192347        5.1723112615       -0.7835919213
 C          0.4389256939        5.7234541798       -1.1376432611
 C          0.3514567243        7.0384242844       -1.5619510446
 C          1.4863332430        7.8236019503       -1.6509533287
 C          2.7212699543        7.2815103227       -1.3332214150
 C          2.8161977790        5.9671529560       -0.9106892946
 O          4.0699308017        5.4860297644       -0.6416321631
 C          4.1781164420        4.1888653132       -0.2195797644
 C          5.4502652346        3.7194868942        0.0563887279
 C          5.6308570932        2.4258704108        0.5193539633
 C          4.5320242254        1.6102511251        0.7182915295
 C          3.2565226992        2.0704766560        0.4359789046
 C          3.0581428364        3.3583954560       -0.0525176887
 C          0.4562925006        1.9219668688       -0.9748661842
 C         -0.6747223628        1.1488821610       -0.8269590895
 N         -4.0060681250        1.3963803606        0.4459718318
 C         -5.1907463682        0.7831743147        0.4592953250
 C         -6.3793969359        1.4816392029        0.6573629590
 C         -7.5937612368        0.8129494283        0.6043428861
 F         -8.7364058889        1.5136550727        0.7941012498
 H         -6.5286957667       -2.3383405702       -0.0124263348
 H         -0.7203468411       -0.4168304313        1.7057743327
 H          1.2868193798       -1.8390034555        1.6927516122
 H         -0.4345722505       -5.2892666068        0.9408695991
 H         -0.5104173685       -7.6763196532        1.4680253626
 H          1.5395043275       -9.0557556313        1.3103202837
 H          3.6828093989       -7.9779678376        0.6585258265
 H          6.1854267492       -4.3564096809       -0.5358581964
 H          6.4361265808       -1.9679902849       -1.1806735467
 H          4.4303252890       -0.5208836046       -1.2717546702
 H          2.2332856400       -1.4200516418       -0.6761650580
 H         -0.4271859132       -4.2432762893       -1.3963445852
 H         -2.4575707083       -2.8342844558       -1.3580055541
 H         -2.2135434837        2.8923446328        1.6256517001
 H         -0.1743463801        4.2692700418        1.3811483123
 H         -0.4511680991        5.1167588819       -1.0852710413
 H         -0.6133095856        7.4433683445       -1.8247728650
 H          1.4185014133        8.8496536718       -1.9753666067
 H          3.6275878035        7.8603289708       -1.4099769684
 H          6.2836216909        4.3872335967       -0.0920036665
 H          6.6250377674        2.0667591326        0.7322520286
 H          4.6593873819        0.6081045567        1.0979606853
 H          2.4046493603        1.4302491642        0.6043727303
 H          1.1949386262        1.6718206170       -1.7225978123
 H         -0.8245260660        0.2937377194       -1.4684741301
 H         -6.3549466981        2.5429764081        0.8370351813
  78
  -136.335428081500       0.219413007103058      !
 F         -8.9629566300       -1.3853369775        0.4102432658
 C         -7.7926363355       -0.7049270092        0.4151674908
 C         -6.6057461887       -1.4082509438        0.2666783592
 C         -5.3894851394       -0.7303666352        0.2731945866
 N         -4.2223800926       -1.3754572566        0.1925320868
 C         -3.0704662466       -0.7112895549        0.1913268264
 C         -1.8284570301       -1.4776943275        0.2159058716
 C         -0.7615662108       -1.0943192580        1.0343829605
 C          0.4245151781       -1.7931051332        1.0093014259
 C          0.5676420397       -2.8967986081        0.1717035250
 N          1.8082743055       -3.5760926750        0.1146279507
 C          1.9306975606       -4.8813640332        0.5811783925
 C          0.8571668658       -5.5793311112        1.1247072728
 C          1.0172375605       -6.8784809750        1.5764694064
 C          2.2504910789       -7.4998527907        1.5017676421
 C          3.3366014793       -6.8097800277        0.9872902747
 C          3.1846612402       -5.5105666918        0.5360452368
 O          4.3045983698       -4.8756785036        0.0671212140
 C          4.1653502659       -3.5957234042       -0.3965329553
 C          5.2993864111       -2.9724904471       -0.8872501807
 C          5.2223835230       -1.6867598933       -1.3989573472
 C          4.0036178762       -1.0348498745       -1.4327100601
 C          2.8657959355       -1.6494372984       -0.9374323228
 C          2.9298004422       -2.9289579793       -0.3941459521
 C         -0.5061562472       -3.3183308482       -0.6063062919
 C         -1.6952073589       -2.6194061936       -0.5759578047
 C         -3.0733282573        0.7004630921        0.1957128470
 C         -1.8488400671        1.4732046854        0.0137115475
 C         -1.6273031045        2.6222068566        0.7750684256
 C         -0.4475576543        3.3275750094        0.6558650622
 C          0.5265003945        2.9043433528       -0.2428710684
 N          1.7631747391        3.5870134148       -0.3411140355
 C          1.8273664091        4.8835676681       -0.8410571989
 C          0.6957875070        5.5713530403       -1.2671556829
 C          0.7990899104        6.8621813219       -1.7573983993
 C          2.0312756912        7.4850436291       -1.8378625086
 C          3.1718701185        6.8049536181       -1.4410864413
 C          3.0768836703        5.5134573038       -0.9536358915
 O          4.2453028956        4.8861265346       -0.6089257976
 C          4.1635861685        3.6146957539       -0.1094048129
 C          5.3481880712        2.9977639629        0.2529425450
 C          5.3327102870        1.7225444182        0.7953358926
 C          4.1267931741        1.0751386112        0.9894294935
 C          2.9379449029        1.6823003627        0.6213963547
 C          2.9368969851        2.9501463963        0.0479519184
 C          0.2892379293        1.7937724436       -1.0496573586
 C         -0.8872238585        1.0893549564       -0.9264391568
 N         -4.2197527484        1.3588779912        0.3413392436
 C         -5.3842357086        0.7081619220        0.4085214350
 C         -6.5934002803        1.3798716243        0.5700498811
 C         -7.7858981034        0.6705216137        0.5735628561
 F         -8.9494915970        1.3451138774        0.7272726411
 H         -6.6226993588       -2.4797313511        0.1605840834
 H         -0.8730676268       -0.2512848728        1.6991488097
 H          1.2498934397       -1.4953560190        1.6396651441
 H         -0.1052507355       -5.0981237741        1.1993721651
 H          0.1686476926       -7.4005527904        1.9902183956
 H          2.3753645061       -8.5129239988        1.8495244125
 H          4.3149390044       -7.2593711790        0.9315318427
 H          6.2306390692       -3.5153237376       -0.8639986840
 H          6.1099772751       -1.2061045333       -1.7779180389
 H          3.9311384833       -0.0406749906       -1.8453332549
 H          1.9174402676       -1.1367595251       -0.9735713415
 H         -0.3964508464       -4.1848866221       -1.2416191125
 H         -2.5306707720       -2.9347910427       -1.1812619903
 H         -2.3840472830        2.9367977880        1.4767643906
 H         -0.2668892671        4.1999322842        1.2668418610
 H         -0.2673807303        5.0877498777       -1.2207543875
 H         -0.0930570941        7.3765601767       -2.0789819863
 H          2.1121405425        8.4921002381       -2.2146537488
 H          4.1488606649        7.2559135095       -1.5079443945
 H          6.2701852245        3.5371277121        0.1070996062
 H          6.2592287454        1.2466439171        1.0734241077
 H          4.1043761292        0.0900270764        1.4285918570
 H          2.0002816573        1.1738019355        0.7817099334
 H          1.0343052949        1.4952937086       -1.7729221810
 H         -1.0738074380        0.2413970472       -1.5677817579
 H         -6.6021564130        2.4512573423        0.6779478915
  78
  -136.335274660300       0.186532653314542      !
 F         -8.8945511335       -1.3149606044        0.3650165942
 C         -7.7177550156       -0.6464041569        0.3943520019
 C         -6.5379072488       -1.3552731086        0.2183675920
 C         -5.3149789060       -0.6902058515        0.2493956054
 N         -4.1542239785       -1.3418663195        0.1446743173
 C         -2.9945866522       -0.6903226797        0.1671477255
 C         -1.7673917819       -1.4793700593        0.1757111927
 C         -0.6902050685       -1.1360356205        0.9983617063
 C          0.4650039665       -1.8856963475        0.9872640712
 C          0.5686143405       -2.9990171597        0.1562144670
 N          1.7681838103       -3.7493913085        0.1300608746
 C          1.7912666718       -5.0679548451        0.5766558617
 C          0.6621333164       -5.6993165441        1.0882951436
 C          0.7228703030       -7.0142400076        1.5177362010
 C          1.9110150466       -7.7189215305        1.4532849691
 C          3.0521820696       -7.0963343731        0.9735333008
 C          2.9994118115       -5.7817254692        0.5450828087
 O          4.1702699060       -5.2183433092        0.1113712996
 C          4.1314989427       -3.9208427268       -0.3215183761
 C          5.3191571950       -3.3677071337       -0.7670655771
 C          5.3455874575       -2.0689394804       -1.2495324688
 C          4.1759758454       -1.3330863222       -1.2991302912
 C          2.9853883305       -1.8772216234       -0.8471815585
 C          2.9450740607       -3.1700515251       -0.3338109889
 C         -0.5109645533       -3.3688269213       -0.6405365728
 C         -1.6696845980       -2.6212374758       -0.6219622990
 C         -2.9843191022        0.7198411562        0.2203818991
 C         -1.7608078556        1.4969901428        0.0530704540
 C         -1.5496960891        2.6371776457        0.8309585630
 C         -0.3909919430        3.3733359588        0.6994898763
 C          0.5730367849        2.9935802275       -0.2297631621
 N          1.7732352965        3.7321745341       -0.3591076152
 C          1.7514301226        5.0506107782       -0.8059305745
 C          0.5718796854        5.6935036008       -1.1678267556
 C          0.5895731983        7.0079948258       -1.6024354210
 C          1.7830080964        7.7007483282       -1.6927548405
 C          2.9704377578        7.0665573664       -1.3643200712
 C          2.9604871751        5.7523221099       -0.9314887271
 O          4.1718714418        5.1770417715       -0.6525354801
 C          4.1766347728        3.8798934624       -0.2171430438
 C          5.4063970842        3.3147317067        0.0716040054
 C          5.4820465471        2.0154627580        0.5476298102
 C          4.3213641183        1.2913911544        0.7488982738
 C          3.0878766149        1.8475556762        0.4541777090
 C          2.9943664101        3.1410028081       -0.0508708620
 C          0.3519743049        1.8820803558       -1.0400994473
 C         -0.8022568022        1.1437463798       -0.9015608701
 N         -4.1250279569        1.3825549456        0.3918486720
 C         -5.2958077112        0.7422372186        0.4383234464
 C         -6.4979961242        1.4190946299        0.6261795201
 C         -7.6974770620        0.7217989640        0.6042078339
 F         -8.8541457545        1.4017970162        0.7840908141
 H         -6.5658457468       -2.4216984061        0.0716935528
 H         -0.7719245227       -0.2882772159        1.6616076621
 H          1.2936761689       -1.6238362228        1.6292256441
 H         -0.2660913722       -5.1543809470        1.1561904291
 H         -0.1678842414       -7.4829525091        1.9060589468
 H          1.9582341708       -8.7445620255        1.7826643167
 H          3.9981953378       -7.6112718531        0.9270570719
 H          6.2093438994       -3.9750089244       -0.7327178436
 H          6.2745668679       -1.6431405285       -1.5934774874
 H          4.1826361428       -0.3269079533       -1.6886710762
 H          2.0765990698       -1.2981033767       -0.8976301290
 H         -0.4308568832       -4.2383660374       -1.2764007529
 H         -2.5107024477       -2.9008111045       -1.2369690701
 H         -2.3011048876        2.9239672995        1.5499408284
 H         -0.2208478008        4.2414209663        1.3194246527
 H         -0.3627077612        5.1579303545       -1.1147522673
 H         -0.3391907740        7.4856789618       -1.8726720177
 H          1.7974000930        8.7259744378       -2.0263172090
 H          3.9195506048        7.5720046086       -1.4411899808
 H          6.2906670733        3.9130655654       -0.0781657409
 H          6.4433727754        1.5802241568        0.7688438678
 H          4.3682714534        0.2850828813        1.1352970031
 H          2.1876209052        1.2775337919        0.6223705139
 H          1.0881775041        1.6126239280       -1.7835349167
 H         -0.9773899828        0.2975147171       -1.5484330040
 H         -6.4965147529        2.4857015396        0.7738323624
  78
  -136.334232706200       6.193068989897997E-002 !
 F         -9.0288646236       -1.4536110544        0.4120054111
 C         -7.8645650844       -0.7630121896        0.4107334071
 C         -6.6711016647       -1.4586848148        0.2793433182
 C         -5.4604363914       -0.7711702931        0.2789501078
 N         -4.2877915348       -1.4084852534        0.2125095057
 C         -3.1425621657       -0.7342328147        0.2031377275
 C         -1.8865557736       -1.4784116345        0.2368328566
 C         -0.8362060958       -1.0678282310        1.0640287245
 C          0.3771022376       -1.7169854077        1.0260662767
 C          0.5650463705       -2.7965831566        0.1664562059
 N          1.8437296263       -3.4003924068        0.0805476079
 C          2.0701086789       -4.6820726874        0.5704706842
 C          1.0541853768       -5.4550180291        1.1225042828
 C          1.3176196493       -6.7289076580        1.5970628842
 C          2.5974973313       -7.2490531545        1.5354168665
 C          3.6259926485       -6.4828940589        1.0100773324
 C          3.3711189551       -5.2081711017        0.5365517028
 O          4.4374609502       -4.4923049182        0.0583476793
 C          4.1936636836       -3.2412866598       -0.4400513348
 C          5.2714797751       -2.5381621169       -0.9487578421
 C          5.0865409717       -1.2782878496       -1.4956672640
 C          3.8173222806       -0.7330589680       -1.5460231318
 C          2.7350591014       -1.4267774085       -1.0319795855
 C          2.9072509477       -2.6797485405       -0.4525267855
 C         -0.4946753103       -3.2565295919       -0.6083121875
 C         -1.7120574550       -2.6072772655       -0.5647882732
 C         -3.1576340106        0.6777945565        0.1860466719
 C         -1.9315044222        1.4479693699       -0.0007087914
 C         -1.6917940301        2.5903732405        0.7642814886
 C         -0.4925823825        3.2661560008        0.6603987912
 C          0.4804601823        2.8183597460       -0.2265090440
 N          1.7502607708        3.4448629459       -0.2904719509
 C          1.9044287112        4.7063792185       -0.8534144082
 C          0.8232977032        5.4449698591       -1.3220478717
 C          1.0157177849        6.6998425104       -1.8748526534
 C          2.2874173909        7.2341347111       -1.9742031088
 C          3.3777263356        6.5020518461       -1.5310198264
 C          3.1939727804        5.2464484712       -0.9801406109
 O          4.3151124456        4.5624123661       -0.5879796128
 C          4.1441218473        3.3275731790       -0.0228452482
 C          5.2795958896        2.6528533158        0.3895848287
 C          5.1711959845        1.4103889093        0.9941401656
 C          3.9223575775        0.8538845772        1.1980407826
 C          2.7818154068        1.5192546819        0.7819909203
 C          2.8743828958        2.7540026622        0.1478060606
 C          0.2186799014        1.7265496335       -1.0502196338
 C         -0.9762351133        1.0518197879       -0.9422807702
 N         -4.3087715442        1.3294132861        0.3171798187
 C         -5.4680131834        0.6694171464        0.3902516126
 C         -6.6832744291        1.3334272147        0.5353905402
 C         -7.8700716103        0.6146520043        0.5457936464
 F         -9.0395684593        1.2824506860        0.6829091723
 H         -6.6792799439       -2.5317162914        0.1913847679
 H         -0.9810645265       -0.2397308818        1.7411681560
 H          1.1920973138       -1.3958615940        1.6582561069
 H          0.0560015904       -5.0511761516        1.1849832393
 H          0.5131928011       -7.3112845026        2.0182980040
 H          2.8030616566       -8.2421186321        1.9016810592
 H          4.6375097053       -6.8529918857        0.9635632208
 H          6.2454215036       -2.9990707389       -0.9118170063
 H          5.9307142591       -0.7345083867       -1.8880832764
 H          3.6630711593        0.2394781753       -1.9870135098
 H          1.7462598421       -0.9985842206       -1.0771948910
 H         -0.3518280486       -4.1095880243       -1.2553191772
 H         -2.5350027068       -2.9477039319       -1.1738081354
 H         -2.4461807185        2.9190211593        1.4620742221
 H         -0.2946041401        4.1297655425        1.2781446959
 H         -0.1696456773        5.0283662505       -1.2576442014
 H          0.1623825738        7.2560423273       -2.2301708985
 H          2.4381136969        8.2122981177       -2.4020993792
 H          4.3826214126        6.8847702486       -1.6087329524
 H          6.2378626005        3.1211259244        0.2322763363
 H          6.0599391938        0.8883216638        1.3101178545
 H          3.8297220179       -0.1051136230        1.6836375752
 H          1.8091407229        1.0832103112        0.9463435239
 H          0.9621306609        1.4164539617       -1.7700606499
 H         -1.1806803650        0.2150217743       -1.5926726247
 H         -6.7015155324        2.4062205500        0.6246943292
  78
  -136.333840324600       4.088648915070400E-002 !
 F         -9.0285763764       -1.4893970123        0.4507630310
 C         -7.8692748921       -0.7905053064        0.4330652645
 C         -6.6729411766       -1.4769737700        0.2783741596
 C         -5.4679592564       -0.7809681394        0.2615631135
 N         -4.2915964468       -1.4114165142        0.1737748409
 C         -3.1524899680       -0.7300108016        0.1558494845
 C         -1.8894278673       -1.4660870260        0.1730698681
 C         -0.8605616333       -1.0863159688        1.0400688770
 C          0.3573976404       -1.7268062008        1.0013637548
 C          0.5747018849       -2.7619533786        0.0944468953
 N          1.8549591428       -3.3584865013        0.0134831842
 C          2.0518322578       -4.6932418958        0.3568764729
 C          1.0113497829       -5.5140887241        0.7794988987
 C          1.2458420873       -6.8395312566        1.1045183711
 C          2.5217990573       -7.3663059109        1.0232163347
 C          3.5750854757       -6.5545582898        0.6337235398
 C          3.3486495487       -5.2284192039        0.3102992235
 O          4.4399976574       -4.4745646060       -0.0327968385
 C          4.2274276051       -3.1704907673       -0.3878300871
 C          5.3330651052       -2.4282841785       -0.7644988591
 C          5.1839015981       -1.1122676197       -1.1716581460
 C          3.9221581083       -0.5498679598       -1.2177675009
 C          2.8126599320       -1.2827201521       -0.8322763863
 C          2.9473689910       -2.5946425234       -0.3889983172
 C         -0.4624029518       -3.1850003577       -0.7312361289
 C         -1.6866404344       -2.5489068723       -0.6820884397
 C         -3.1729574497        0.6818513600        0.1562023727
 C         -1.9511569793        1.4598261148       -0.0172757926
 C         -1.7334217108        2.6070183734        0.7485367264
 C         -0.5336838081        3.2852504800        0.6720137730
 C          0.4618286950        2.8346588835       -0.1875290859
 N          1.7407127690        3.4502198319       -0.2092957775
 C          1.9517981024        4.6535998983       -0.8688999877
 C          0.9107345053        5.3677462509       -1.4515979721
 C          1.1587292902        6.5646989905       -2.1021340873
 C          2.4462336092        7.0631652083       -2.1848329548
 C          3.4967855849        6.3560049833       -1.6208415379
 C          3.2576461102        5.1589988568       -0.9701943000
 O          4.3399924942        4.4955428065       -0.4526401980
 C          4.1111409771        3.3187707078        0.2085620601
 C          5.2055527993        2.6637196387        0.7448331141
 C          5.0352353258        1.4771185149        1.4408581400
 C          3.7658940633        0.9559563265        1.6090054355
 C          2.6657670979        1.6023449596        1.0718494809
 C          2.8219731071        2.7816803352        0.3506652767
 C          0.2209113900        1.7451937707       -1.0196871865
 C         -0.9755521678        1.0688969236       -0.9403707657
 N         -4.3280726406        1.3256522986        0.3054732825
 C         -5.4818536802        0.6586731329        0.3832143893
 C         -6.7001349840        1.3134541320        0.5503080196
 C         -7.8814325200        0.5864816457        0.5746685947
 F         -9.0529742572        1.2455725074        0.7337398017
 H         -6.6748599143       -2.5495719467        0.1842215786
 H         -1.0277308293       -0.2904294036        1.7501183258
 H          1.1538348824       -1.4326903622        1.6691456308
 H          0.0151468897       -5.1090495537        0.8612821298
 H          0.4213005374       -7.4570075012        1.4249087551
 H          2.7047568643       -8.3996853290        1.2706027488
 H          4.5848723798       -6.9282644163        0.5792639913
 H          6.3001110494       -2.9041177284       -0.7378880139
 H          6.0491187528       -0.5381186733       -1.4614287480
 H          3.7945704841        0.4668345443       -1.5555892878
 H          1.8312842480       -0.8378719022       -0.8751568887
 H         -0.2969193369       -3.9983013160       -1.4225330692
 H         -2.4909761466       -2.8632074075       -1.3289894414
 H         -2.5063127645        2.9356947448        1.4257051393
 H         -0.3520163875        4.1516590085        1.2907812066
 H         -0.0931368511        4.9763334970       -1.3961333693
 H          0.3369197262        7.1042479435       -2.5463486072
 H          2.6401357084        7.9957831992       -2.6901341693
 H          4.5121965314        6.7137332894       -1.6789071658
 H          6.1812457616        3.1016922262        0.6087547893
 H          5.8926483707        0.9705270141        1.8537336463
 H          3.6255535155        0.0403772732        2.1621999019
 H          1.6758371865        1.1956812595        1.2069325282
 H          0.9816609746        1.4364712039       -1.7219992377
 H         -1.1632783301        0.2342239099       -1.5982195226
 H         -6.7245371587        2.3855429211        0.6468676521
