  78
       -136.78024465
 F         -9.0534771775       -1.3197712633       -0.3096526393
 C         -7.8833146011       -0.6576486924       -0.1520611645
 C         -6.6922211390       -1.3531278735       -0.3043233210
 C         -5.4758688106       -0.6950762308       -0.1435693951
 N         -4.3087945422       -1.3408120597       -0.2250774514
 C         -3.1573669556       -0.6934619027       -0.0787669038
 C         -1.9143579439       -1.4598485547       -0.0704223674
 C         -0.9110947624       -1.1815467097        0.8634283982
 C          0.2947132387       -1.8435375559        0.8109071332
 C          0.5216326100       -2.8047234358       -0.1711382189
 N          1.7961058931       -3.4167545003       -0.2613191107
 C          1.9777215607       -4.7556944801        0.0676670860
 C          0.9215118222       -5.5744302265        0.4528664071
 C          1.1411288614       -6.9043545161        0.7698332961
 C          2.4162989284       -7.4366580099        0.7147629739
 C          3.4833698240       -6.6283877265        0.3558161028
 C          3.2722446081       -5.2979386163        0.0404796993
 O          4.3736690066       -4.5464240789       -0.2762519313
 C          4.1748244312       -3.2364289121       -0.6186827494
 C          5.2893923224       -2.4937723690       -0.9666103789
 C          5.1523211560       -1.1697880662       -1.3524503811
 C          3.8948297583       -0.5981632187       -1.4042842611
 C          2.7756102150       -1.3321090489       -1.0500939684
 C          2.8980769606       -2.6532650499       -0.6318823543
 C         -0.4947149437       -3.1386370574       -1.0601636240
 C         -1.7049231465       -2.4772011458       -1.0023636116
 C         -3.1550630260        0.7086711989        0.0896314901
 C         -1.9110890021        1.4727579266        0.0777691919
 C         -1.7047316402        2.5002978366        0.9993635586
 C         -0.4937100299        3.1604936097        1.0554949256
 C          0.5257744366        2.8139076764        0.1754560399
 N          1.8042766814        3.4186623407        0.2687022389
 C          2.0066584200        4.7398009917       -0.1130431827
 C          0.9643426382        5.5542090263       -0.5423392089
 C          1.2042167000        6.8666937091       -0.9127017038
 C          2.4856814600        7.3846454838       -0.8665217889
 C          3.5387668660        6.5798424651       -0.4610176994
 C          3.3076506002        5.2667176436       -0.0921524272
 O          4.3951387600        4.5156218079        0.2709926377
 C          4.1761422489        3.2209645662        0.6574452315
 C          5.2768238947        2.4761711863        1.0427107228
 C          5.1178362620        1.1675810009        1.4708113598
 C          3.8526321179        0.6134798882        1.5264919733
 C          2.7470019990        1.3495779732        1.1361165684
 C          2.8918835337        2.6547061115        0.6767565411
 C          0.3015122747        1.8446328135       -0.7988591534
 C         -0.9054530812        1.1848663088       -0.8505877148
 N         -4.3044039679        1.3596973959        0.2382948085
 C         -5.4734916158        0.7184089515        0.1560830569
 C         -6.6875363041        1.3811264134        0.3165063566
 C         -7.8810300249        0.6903158591        0.1629254541
 F         -9.0488692420        1.3569521627        0.3185732236
 H         -6.7074830299       -2.4050422808       -0.5333283316
 H         -1.0869191914       -0.4465911118        1.6342546003
 H          1.0737837892       -1.6238128982        1.5262892769
 H         -0.0738894130       -5.1629758405        0.5098262406
 H          0.3061019070       -7.5211713121        1.0630420871
 H          2.5879267452       -8.4729276373        0.9582262060
 H          4.4915070112       -7.0087437955        0.3198801493
 H          6.2539460920       -2.9743393148       -0.9341248449
 H          6.0248368036       -0.5957729072       -1.6199162895
 H          3.7786846651        0.4265486251       -1.7214125813
 H          1.7963475243       -0.8825982710       -1.0959464307
 H         -0.3230023043       -3.9022406003       -1.8045804915
 H         -2.4935483142       -2.7189385448       -1.6978258823
 H         -2.4959519662        2.7493081266        1.6892821772
 H         -0.3233540882        3.9317809518        1.7921912788
 H         -0.0354251143        5.1520833378       -0.5913527578
 H          0.3803306679        7.4810634052       -1.2406528537
 H          2.6731849963        8.4073091095       -1.1521960397
 H          4.5508743220        6.9498921616       -0.4289468275
 H          6.2481764128        2.9423480868        1.0045836977
 H          5.9798288968        0.5915084339        1.7663950128
 H          3.7198240048       -0.3988676636        1.8751717395
 H          1.7612165691        0.9147026529        1.1846248572
 H          1.0833604316        1.6171104416       -1.5087862451
 H         -1.0799865714        0.4445545111       -1.6164302860
 H         -6.6987278314        2.4331406906        0.5452729519
