40
 energy: -70.120682132391 gnorm: 0.000065895487 xtb: 6.7.1 (edcfbbe)
C            5.47882616685351        1.14362750545070        2.09580925876055
C            4.47977580785729        0.58284206187445        1.14096630676245
N            3.23317650882762        0.73774584229342        1.34700283391320
C            2.35009169121362        0.19956308700884        0.43175042176146
C            0.98933627320367        0.35188921713731        0.63091786249242
C            0.09503381975259       -0.19239520121770       -0.29136673942842
N           -1.30242710252364       -0.03638757933485       -0.09383148602423
C           -2.07889982204141       -1.13332809277916        0.17158941750443
C           -1.54734726491872       -2.42097801551502        0.34756817877054
C           -2.36938453627374       -3.48973318092139        0.58832305536233
C           -3.77047814112594       -3.31881482992737        0.66877264667205
C           -4.31949218171209       -2.06588233466854        0.53078008704810
C           -3.50316952225424       -0.96382541873051        0.29438912735890
O           -4.07541831439108        0.25329740113762        0.19627053923780
C           -3.29625145079514        1.32972554817010       -0.03212284881785
C           -3.90601298909902        2.57851641007093       -0.13267453424658
C           -3.15397493043201        3.69761533155080       -0.39694809520926
C           -1.75952426785841        3.58298410354234       -0.58763119066710
C           -1.13895819554908        2.36355695947065       -0.49588054806357
C           -1.87319489313338        1.20728295026709       -0.19651203725209
C            0.55974192212166       -0.89217230410564       -1.41711317251509
C            1.90450720191960       -1.04340353348390       -1.62283438484090
C            2.82931124510966       -0.50352403066478       -0.70381289889754
C            4.24277988689877       -0.65281463668600       -0.89449187646548
O            4.81391979996252       -1.21720727371415       -1.79930193533755
O            5.04308164086270       -0.06276303078103        0.10552069694445
H            6.09523467338433        0.33913495567036        2.49209228927476
H            6.13332691973854        1.83782045536981        1.57243416784679
H            4.96224988284752        1.65169928868796        2.90286305522362
H            0.63644621302555        0.87865143206374        1.50305478362352
H           -0.47836823267868       -2.55426423091830        0.29553029082867
H           -1.94718595132600       -4.47236962094675        0.72255388950738
H           -4.40352565959325       -4.17146932096828        0.85092051430441
H           -5.38294845670837       -1.90316093930806        0.60728664274242
H           -4.97508125620533        2.63280577816243       -0.00113246351369
H           -3.62646106598085        4.66326115518685       -0.47144313432312
H           -1.18045099429310        4.46356318880164       -0.81334125092587
H           -0.07569609012486        2.28070000857752       -0.65456542984098
H           -0.15712109437165       -1.29438184881662       -2.11779660981784
H            2.28902931305493       -1.57021059338443       -2.48147689650313
