40
 energy: -70.120681077463 gnorm: 0.000076913385 xtb: 6.7.1 (edcfbbe)
C            5.48597742827162       -1.21253206885696       -2.03205569303479
C            4.48298011505988       -0.61805549852948       -1.10204868532218
N            3.23734462909443       -0.78414239394524       -1.30520507229888
C            2.35043636218757       -0.21431225238813       -0.41313519853432
C            0.99064987826196       -0.37840394704175       -0.60946801706206
C            0.09236447485096        0.19722757673283        0.28965525215968
N           -1.30394011567758        0.02827334232648        0.09507864021398
C           -1.86894550139539       -1.21399325796352        0.23818719563931
C           -1.13051311628766       -2.35521034246041        0.58215037778609
C           -1.74503961639771       -3.57418849312847        0.71176077153661
C           -3.13744065051151       -3.70335037110077        0.51532085649531
C           -3.89377574626426       -2.59816260693223        0.20806743391662
C           -3.29029067422423       -1.35003376899060        0.06947810610821
O           -4.07384436448626       -0.28628202558511       -0.19969116586643
C           -3.50762161603541        0.93015712494815       -0.33452235662552
C           -4.32873786697435        2.01913001052521       -0.61158886496075
C           -3.78596471626977        3.26991201195628       -0.78821229511880
C           -2.38627691393311        3.45122568348368       -0.70678014682548
C           -1.55962487200718        2.39557987559220       -0.42692352686825
C           -2.08500903541261        1.11164519942181       -0.21027167887108
C            0.55221994242407        0.94040231315744        1.38931149097671
C            1.89601936304231        1.10385408435893        1.59204017887214
C            2.82472755526426        0.53268669684078        0.69616216078180
C            4.23726513406418        0.69336014315135        0.88444504390820
O            4.80456540871543        1.29342720398161        1.76845286298761
O            5.04180804164276        0.06807453050461       -0.09054711837716
H            6.13588239509203       -1.89029720853252       -1.48203118902725
H            4.97265000182523       -1.74660240025988       -2.82426386784786
H            6.10651799911248       -0.42319736572653       -2.45159151773393
H            0.64151942215709       -0.93887068706722       -1.46188865681375
H           -0.06884674503442       -2.26093556270409        0.74511196106997
H           -1.16277759271334       -4.44309393911784        0.97191324172413
H           -3.60513401834194       -4.66859859028300        0.61940878223272
H           -4.96160401122821       -2.66305747522226        0.07133461250476
H           -5.39085638997244        1.84790824934929       -0.68806220671208
H           -4.42277829268988        4.11246860910747       -1.00151162672355
H           -1.96870720055467        4.43118050034781       -0.87153080606000
H           -0.49167027109640        2.53660458520867       -0.37465174967089
H           -0.16752754428717        1.36595918913813        2.07302918852492
H            2.27684116850500        1.66384800720830        2.43110830189799
