40
 energy: -70.206731915054 gnorm: 0.000081087831 xtb: 6.7.1 (edcfbbe)
C            5.74013003812992        0.87625060547410       -1.61749956280725
C            4.66171837635958        0.39955685801512       -0.70953408083020
N            3.43558220788514        0.54749487050032       -1.01211204962520
C            2.48281389281748        0.08482430310874       -0.12953931042125
C            1.13447492473333        0.23121236474741       -0.44283730522602
C            0.16707207286138       -0.23355672053455        0.43597568479165
N           -1.19545969423933       -0.08236379343028        0.13364601346355
C           -2.03028904466563       -1.20336830747577        0.04453570210106
C           -1.54377692950639       -2.50129705433533        0.14055028062517
C           -2.39708042216277       -3.58981127246700        0.04487048269319
C           -3.74836608257424       -3.40135847945075       -0.16394949480113
C           -4.24377600255614       -2.11418304293344       -0.30372297537777
C           -3.39608022299037       -1.02523108081706       -0.21070311846557
O           -3.95513650202866        0.21235404960240       -0.39921065288128
C           -3.12156255949290        1.29985874789825       -0.33974791049220
C           -3.70212698408818        2.53929938806084       -0.53954946705046
C           -2.93815339172915        3.69278705124265       -0.45503707118634
C           -1.59574058373712        3.59603061150764       -0.14938514727171
C           -1.00838047533989        2.35575874723769        0.04778326144095
C           -1.75139142484881        1.18772759643514       -0.06902886209698
C            0.54682073099617       -0.85448886934825        1.63639561946726
C            1.87538696302027       -1.00666129820703        1.95052487305046
C            2.85757049863175       -0.54004699308227        1.07374455383932
C            4.27399932920551       -0.68549624069303        1.37829511783389
O            4.75102532823333       -1.19087840748134        2.35794856589412
O            5.13138589984333       -0.17830542056974        0.41735193010177
H            6.36293367604886        1.60095220718784       -1.09652089143339
H            6.37364432668065        0.03881007196994       -1.90356087084523
H            5.29713460078513        1.32813699494382       -2.49831714262524
H            0.86375995562181        0.69711736222894       -1.37680986366633
H           -0.48749926155343       -2.66722301884163        0.28249569827467
H           -1.99098942354102       -4.58572891105947        0.13093670393075
H           -4.41730370920931       -4.24436621760254       -0.23336357954067
H           -5.28941060772941       -1.93087268687413       -0.49225306587743
H           -4.75833729809042        2.57783920973307       -0.75279249627791
H           -3.39867277837100        4.65472864054202       -0.61487087885341
H           -0.99087417219436        4.48470916052800       -0.05683737013716
H            0.03735478101810        2.30151363823887        0.30520110522733
H           -0.21936798628729       -1.19833639736295        2.31472328562950
H            2.18696795404799       -1.47339226663366        2.87220528943552
