102
 energy: -141.780590110948 gnorm: 0.000053259871 xtb: 6.7.1 (edcfbbe)
C           -5.91315648448323       -5.29829293177459       -0.02806872153771
C           -5.05311789834920       -4.07656660015545       -0.14614408216219
C           -4.01348094894747       -3.84230151964708        0.73838640033295
C           -3.22598289442279       -2.70327997915662        0.66326592494917
C           -2.15471710006459       -2.51774754817668        1.69878391807482
C           -3.46859332530270       -1.76727597020509       -0.35460843042886
N           -2.67490615981951       -0.60928315973180       -0.46355101218831
C           -1.28992894604247       -0.70336942089693       -0.41331266602690
C           -0.61389883064699       -1.83571795713990       -0.87280291588239
C            0.76203087067417       -1.89682089749857       -0.81075481634886
C            1.50112321823797       -0.83568599043950       -0.29072417398442
C            0.83669578293889        0.31280225314084        0.14438977529651
C           -0.54264906425621        0.35843252304048        0.09554712203972
C            1.64445461619636        1.45693171143828        0.72590173687049
C            1.96391750538290        1.18315108310277        2.19516820054794
C            2.82639050176114        2.03416980109849        2.87820377006048
C            3.14834730433816        1.80316011406013        4.20222092087397
C            2.61665619937298        0.71202441200809        4.86872220937053
C            1.75573946492548       -0.13816451691792        4.19950207328538
C            1.43020788780212        0.09628000988004        2.87433133236173
C            0.84029112970453        2.73156953108390        0.54232042975685
C            0.69028094741794        3.24643187698835       -0.74192379516942
C           -0.11960557068520        4.34118028004987       -0.97474035680378
C           -0.80175239043202        4.93587312280783        0.07328355448100
C           -0.65870864173813        4.43152277550955        1.35290632266592
C            0.15558031062722        3.33590605161138        1.58707848014121
C            2.97848387771818        1.52711666722173        0.00249384525734
C            3.66815971102565        2.71836227519275       -0.16170026946343
C            4.94178256286555        2.71971217714153       -0.69868049438419
C            5.53440141369595        1.53419800750104       -1.10000448256710
C            4.85509655834568        0.33259252875714       -0.99310777467249
C            3.57660853544361        0.34097728786408       -0.42464181200509
N            2.89427333971194       -0.86241879631642       -0.28429949916657
C            3.64557786210518       -2.00793512212851       -0.05068383203936
C            3.15975920136880       -3.01926228977595        0.77426256884084
C            3.94560642380161       -4.11635864565413        1.06182957216667
C            5.22926464833585       -4.19740667565721        0.55140990045925
C            5.71878504291238       -3.18461849197156       -0.25664283535548
C            4.93989628132763       -2.08564055610426       -0.58048560834464
C            5.37100571860142       -0.98803251081790       -1.53517400629532
C            6.88077214213612       -0.97416910176970       -1.77280467091443
C            4.66902806787924       -1.24110818099186       -2.88713091486029
C           -3.25335093802665        0.67506525086056       -0.56734174628721
C           -4.23902694206571        1.09198574335222        0.33978943403437
C           -4.73980285692572        0.19794354262782        1.43505159752034
C           -4.75060352506820        2.37556973881173        0.23760698839429
C           -4.30723316748012        3.27080535817941       -0.72475677194602
C           -4.85408641630701        4.66512359051083       -0.77594824947284
C           -3.34639153634225        2.83760893607969       -1.62168579204879
C           -2.82132981200640        1.55547774095199       -1.57055008015236
C           -1.80364919688033        1.16705629757970       -2.60199542810963
C           -4.51857566775500       -1.98980914615187       -1.25947979264763
C           -4.81836859342858       -1.03359565693421       -2.37532838989188
C           -5.29322159227167       -3.13145974140814       -1.13203940239363
H           -6.20666261297235       -5.66058260038900       -1.01109570391483
H           -5.38952952598788       -6.09232820766249        0.49891107609483
H           -6.82207356718835       -5.06425260853680        0.52768695197331
H           -3.81476665757358       -4.55960496125344        1.52262310923646
H           -1.21598511300390       -2.96206885360216        1.36479728959824
H           -2.44928639407139       -3.00760546557663        2.62513095462771
H           -1.96689482875486       -1.46622008939511        1.90364682763272
H           -1.17367881003761       -2.66052675647942       -1.28885800694375
H            1.27898006738550       -2.77028342383618       -1.18045202774127
H           -1.06245456978283        1.22644349891358        0.47155152365574
H            3.24987517416343        2.88682562876186        2.36955737402567
H            3.81894173103039        2.47718154604288        4.71528851248713
H            2.87112487676255        0.52791400270573        5.90210565857389
H            1.33131200136856       -0.99110358509427        4.70928732309287
H            0.74912002231126       -0.57507201473295        2.37301143700073
H            1.21635721856586        2.78014708238946       -1.56374898953723
H           -0.22365122021155        4.72743168872433       -1.97824457075239
H           -1.44298841647825        5.78548688097503       -0.10833367048591
H           -1.18956436780696        4.88633493719166        2.17669953234663
H            0.24745449924573        2.94303946981194        2.58921555477671
H            3.21075769885854        3.64978391617288        0.13870302203691
H            5.47787925051712        3.65060070160195       -0.80717945326039
H            6.52834717746616        1.56661096787650       -1.51516331288881
H            2.17095819857328       -2.92872361301265        1.19818746405250
H            3.56112285380239       -4.90008005672235        1.69762819473756
H            5.85228238360815       -5.04899415825515        0.78007019774009
H            6.72244349934237       -3.27202923159403       -0.64026033078522
H            7.41823880443978       -0.79393872920804       -0.84443366382717
H            7.20493710026215       -1.92266993157458       -2.19318407902780
H            7.14254808358403       -0.20089705382594       -2.49033261710183
H            4.98239146009776       -2.19975130368525       -3.29578168994982
H            4.92732544254887       -0.45529807955881       -3.59419689700267
H            3.58828930593804       -1.25418201931079       -2.76819911369447
H           -5.35840906583413       -0.60528660518469        1.03541939574733
H           -3.91221535621732       -0.25666960563793        1.97421371826658
H           -5.33761656094895        0.77071870275829        2.14032532911582
H           -5.50626774081588        2.69393158585985        0.94242527501274
H           -5.94261284212438        4.65051786876673       -0.80594742606316
H           -4.55309226031552        5.21856467272834        0.11344945606221
H           -4.48712635738055        5.19395185913509       -1.65193921718001
H           -2.99588960323961        3.51037028564259       -2.39145157164093
H           -0.80376586144749        1.44488629795734       -2.26803132302798
H           -1.80259056892788        0.09645673577803       -2.79143307669073
H           -2.00605590308766        1.68938207156832       -3.53522703383757
H           -5.49981848972349       -1.49336122871427       -3.08752327170415
H           -3.90905373252544       -0.75070429142174       -2.89980678788352
H           -5.28189332246733       -0.12217352885875       -1.99830833380354
H           -6.10081672787636       -3.29487967921055       -1.83214626330213
