102
 energy: -141.680843930215 gnorm: 0.000135243147 xtb: 6.7.1 (edcfbbe)
C           -5.99798153070323       -5.40527964294608        0.45586568321465
C           -5.19242579859517       -4.15907251089666        0.25486943796220
C           -4.09988825318043       -3.88694543379035        1.07390979487928
C           -3.33517524571657       -2.74535282283936        0.92410912455326
C           -2.21239440569731       -2.51456275378484        1.89507822864724
C           -3.66488195833818       -1.82759068037643       -0.09271448471378
N           -2.88755030757866       -0.67754938224921       -0.28701314856617
C           -1.51749509825159       -0.77646558021214       -0.30521246886784
C           -0.85898544949634       -1.94140248543128       -0.81679939458282
C            0.49256692835992       -1.98887889764381       -0.87638664363130
C            1.29285335789681       -0.88983140972195       -0.43358335278049
C            0.63629478988328        0.30551139314263        0.02534716366161
C           -0.71920648983494        0.32244081984303        0.11055693110197
C            1.46647594151144        1.48444882303533        0.48102874594353
C            1.67709126850478        1.44838103039119        1.99107145220955
C            2.06266493262782        2.59483821945980        2.68224048887421
C            2.30655235456264        2.55275870912612        4.04163838028564
C            2.18054335836774        1.36330848479301        4.73953513239295
C            1.80501826665887        0.21613120166899        4.06047271153706
C            1.55651987389211        0.25908387759961        2.70106766941961
C            0.71945290465043        2.71448845592403       -0.00514579040228
C            0.84831244336271        3.10905879814043       -1.33333618217061
C            0.10146680612806        4.15673800638272       -1.83653770640564
C           -0.80166708134776        4.82409444663278       -1.02304623774473
C           -0.94891450395756        4.42991646427214        0.29497812036186
C           -0.19797853542430        3.38442680607710        0.80069574585472
C            2.86631420871662        1.42704243677223       -0.09470000682480
C            3.66426071668653        2.56032078876326       -0.13728831086013
C            4.96482081655471        2.49279173760723       -0.59379228057747
C            5.48883227519057        1.28546708388785       -1.04747197532450
C            4.72163321070605        0.13708818754146       -1.03414012343561
C            3.41583423819710        0.20827750538744       -0.52512420714742
N            2.65675498520284       -0.95572481724104       -0.45239155531618
C            3.34999782744378       -2.14296694987073       -0.23650076686450
C            2.80030099924547       -3.14498160484316        0.57652067367066
C            3.51148799978073       -4.29512564916060        0.83226288867867
C            4.78219541281261       -4.45823958106018        0.30110933750316
C            5.34118521720801       -3.45247544196824       -0.48130952077645
C            4.64516823658861       -2.29292728157447       -0.76154780192100
C            5.16315131480561       -1.17911824030613       -1.64586563295328
C            6.67468304820196       -1.25265114831913       -1.86007797161359
C            4.47440833005810       -1.30540725447941       -3.02311618696844
C           -3.46386174944619        0.59609510050674       -0.43815190124049
C           -4.42672560177531        1.05476413633905        0.48322720633266
C           -4.91295135559900        0.19986116971659        1.61553043362394
C           -4.91340187568156        2.34538209247125        0.36016773113366
C           -4.48491991718032        3.20320102597724       -0.64146120994949
C           -4.99927955764169        4.60513061939407       -0.74881662902536
C           -3.55357341932252        2.72464200705777       -1.55753911389072
C           -3.03871645708094        1.44509289434959       -1.47890481852471
C           -2.07239571211339        1.01011633636336       -2.54210944386708
C           -4.77455704573103       -2.08191198396556       -0.92527316582869
C           -5.16440411802607       -1.15312634618419       -2.03627340203668
C           -5.51119110856682       -3.23850448361277       -0.73114185502408
H           -6.76165237962039       -5.50340974354757       -0.31151886318867
H           -5.35555586199574       -6.28450886340002        0.42429015136938
H           -6.48687357532183       -5.38758047289536        1.43012615127632
H           -3.84955709276734       -4.58355599189420        1.86156488625789
H           -1.29152939744925       -2.97143354157693        1.53217367438150
H           -2.45830118783004       -2.97037177303071        2.85254644780161
H           -2.01580969493389       -1.45664327326084        2.05233755961722
H           -1.46197883701389       -2.75179275532709       -1.19873516539523
H            0.99383744196840       -2.84280678294103       -1.30777674887536
H           -1.22688797189937        1.18436760394198        0.51503884869484
H            2.16653764645649        3.53159539351279        2.15626109051407
H            2.59968805475694        3.45491872601495        4.55926571138544
H            2.37382949672447        1.33043929822816        5.80151283075125
H            1.70434451480855       -0.71937439739985        4.59178414233750
H            1.25803916055822       -0.64579079985389        2.19293546396599
H            1.54133005052302        2.58653423922667       -1.97838608341585
H            0.21847986552099        4.44978239185458       -2.87003593038173
H           -1.38594059570974        5.64259643690444       -1.41708056804339
H           -1.65796527795326        4.93384193271608        0.93606586280723
H           -0.33111393693865        3.08370530830407        1.82992356417523
H            3.25718739868006        3.50872435945150        0.17744830305127
H            5.57437317876971        3.38303960690968       -0.62062867925865
H            6.49722067399470        1.26951387294472       -1.42568627583455
H            1.82898927368111       -2.99291303030584        1.02184563903589
H            3.08220010620301       -5.06296679178966        1.45870263693652
H            5.34467236836866       -5.35727125330125        0.50016667112645
H            6.33644295273282       -3.59804519896273       -0.86832326320119
H            7.20527160805383       -1.16189184107019       -0.91497800136882
H            6.94277293105947       -2.19579612915021       -2.32912695812973
H            6.99979776877978       -0.45934446933024       -2.52797268509053
H            4.74107362341101       -2.25357064116761       -3.48566409609780
H            4.79335628405504       -0.49398434228156       -3.67413131429596
H            3.39218048891900       -1.26229847581753       -2.92579190861418
H           -5.58285150745684       -0.58312065370536        1.25963399497638
H           -4.08340923301463       -0.28116067243887        2.12891370348228
H           -5.45574215977285        0.80935282361712        2.33455034644468
H           -5.64262639148093        2.69523154177540        1.07789769988332
H           -4.18355196338452        5.31503287951463       -0.61369758579534
H           -5.43007019103959        4.78011172582990       -1.73413642817373
H           -5.75880765616115        4.80189046435082        0.00370926135219
H           -3.22403349620636        3.36928314333048       -2.35931949338061
H           -2.05226556948069       -0.06946901043268       -2.66763077863362
H           -2.34554610543460        1.46832606415545       -3.49115599221953
H           -1.06333343213949        1.33746507975884       -2.29110233828516
H           -5.85481557336455       -1.65312742642860       -2.71207334078214
H           -4.29467911478688       -0.83364340250701       -2.60553533275043
H           -5.65515562599572       -0.25954496271611       -1.65010396320786
H           -6.35692911720876       -3.42955224737898       -1.37711988350221
