102
 energy: -141.680843785961 gnorm: 0.000136612129 xtb: 6.7.1 (edcfbbe)
C           -5.94111991431035       -5.47160695890923        0.44144910424202
C           -5.15939863311839       -4.20648749882301        0.26690862368293
C           -4.05193931292792       -3.94313413852072        1.06790828329575
C           -3.29853555825004       -2.79280512083114        0.92561720000700
C           -2.15848192272292       -2.57260637817208        1.87872582320227
C           -3.65558484546073       -1.85726734611486       -0.06527817646770
N           -2.89167573693960       -0.69688358660357       -0.25087357649345
C           -1.52147999671181       -0.78390323810567       -0.29795218051381
C           -0.86387573119505       -1.93186781842993       -0.84758537348968
C            0.48659763839547       -1.96724069357428       -0.93358972299634
C            1.28685877166327       -0.87207647184356       -0.48086201413967
C            0.62987351381181        0.30783011337172        0.01597432630508
C           -0.72387454972250        0.31222453567270        0.12644417448092
C            1.45913399336387        1.48329896986158        0.48233034847805
C            1.69370958066760        1.41792605306615        1.98784383868984
C            2.07965747152747        2.55316221852753        2.69704253653853
C            2.34459598785342        2.48492221101106        4.05144922966943
C            2.23981941330853        1.28005194032886        4.72597406269261
C            1.86445980159744        0.14385192044619        4.02862880916978
C            1.59490475492722        0.21292298659153        2.67431888643269
C            0.69579680337449        2.71739439376918        0.03302985421649
C            0.80149839215459        3.14015917662570       -1.28852347773852
C            0.03996743387343        4.19270010911070       -1.75845693306780
C           -0.85495675632248        4.83681811062327       -0.91762227728818
C           -0.97938131384145        4.41440030101294        0.39399608080298
C           -0.21376991886638        3.36399516926214        0.86640400747772
C            2.84998170329076        1.44809159209540       -0.11641899231670
C            3.63961415974195        2.58754754101505       -0.14584417227446
C            4.93324954947487        2.53944521330280       -0.62401577184894
C            5.45782758605891        1.34639539283621       -1.11337168568612
C            4.69848983466885        0.19278718705756       -1.11434110464834
C            3.40052522404340        0.24318364264706       -0.58303428862030
N            2.65066239353838       -0.92754875426124       -0.52434840535791
C            3.35541936558399       -2.11449446898879       -0.34716534698748
C            2.82620808674671       -3.13860280141724        0.45179371070433
C            3.54883830122905       -4.28961267307444        0.66856030390782
C            4.81119543632116       -4.43195011157692        0.11211090090283
C            5.35045410866366       -3.40452881388989       -0.65582747775017
C            4.64248277251039       -2.24343562629880       -0.89712896529273
C            5.13865511399068       -1.10584980454629       -1.76350863670681
C            6.64696919110565       -1.16404015134513       -2.00363459379054
C            4.42847175902001       -1.20486060383151       -3.13207401242020
C           -3.48076729682905        0.57486114660559       -0.36362726061092
C           -4.42875972834205        1.00626067039375        0.58594282153850
C           -4.88574942594520        0.12393644177310        1.70937071163916
C           -4.92755872515214        2.29525917126847        0.49985302892655
C           -4.52526036940690        3.17746447796754       -0.49140139842066
C           -5.05302683554033        4.57687480570550       -0.55978073735868
C           -3.60849347400244        2.72581075423106       -1.43545443460216
C           -3.08259179991413        1.44903007111123       -1.39420342860553
C           -2.13403662055591        1.04427423955467       -2.48496709995878
C           -4.78029300558641       -2.10330103155409       -0.88012661477488
C           -5.19998562654979       -1.15477535479178       -1.96325251597662
C           -5.50444651142189       -3.26877510122322       -0.69435683409216
H           -6.89889042446574       -5.41127109710412       -0.06949919857061
H           -5.38693129975064       -6.31636118321793        0.03034827301127
H           -6.11689403297893       -5.67278041137450        1.49687147236664
H           -3.78033143668392       -4.65292595052891        1.83653636280911
H           -1.24107273568674       -3.01280231225580        1.48756448074789
H           -2.38083040418183       -3.05131252366675        2.83075587932986
H           -1.96824855114429       -1.51652973718450        2.05511138554130
H           -1.46786743017648       -2.73845078256988       -1.23601467900681
H            0.98616546214565       -2.80723325578684       -1.39335609146961
H           -1.23044401855255        1.16119416299009        0.55875836794839
H            2.16710293990616        3.50166926519989        2.18944467203461
H            2.63745976644660        3.37875792069935        4.58347104564211
H            2.44947290253416        1.22680155464131        5.78401684393062
H            1.78048008720972       -0.80350610137687        4.54152152503692
H            1.29709542421338       -0.68390893313948        2.15173031543706
H            1.48800776334100        2.63597981089890       -1.95477084059913
H            0.13920230827230        4.50789131513897       -2.78728701091298
H           -1.45051887072917        5.65932010164215       -1.28558174187278
H           -1.68184158029519        4.90000304003854        1.05611861154139
H           -0.32910719139897        3.04127761343565        1.89110380345903
H            3.23130416251135        3.52573960521730        0.19667532808469
H            5.53647982382268        3.43424691519124       -0.64001356024179
H            6.46018898952737        1.34605889918592       -1.50762951148726
H            1.86182139916409       -3.00334429444163        0.91714795224166
H            3.13516324022001       -5.07454611607924        1.28422529341858
H            5.38256221991272       -5.33166517725399        0.28043529844664
H            6.33986296985651       -3.53434590724534       -1.06290845171666
H            7.19218932498915       -1.09248880079823       -1.06523838756431
H            6.91337183278368       -2.09382490651832       -2.49955564450034
H            6.95626040076552       -0.35276400644616       -2.65729292845926
H            4.69309111655574       -2.14051776838029       -3.62052907956195
H            4.73212302963143       -0.37678482834239       -3.76928362549153
H            3.34773296640365       -1.17064879572126       -3.01637208480994
H           -5.55528987861393       -0.65788665283402        1.35031786677774
H           -4.04227929089461       -0.35966168608632        2.19702641739877
H           -5.42011013117753        0.71358416820849        2.45088852654899
H           -5.64512027298362        2.62402469984974        1.23896602531928
H           -5.78553029702671        4.75739702394639        0.22298514034954
H           -4.23801516177084        5.29114918372712       -0.44562664756565
H           -5.52184185587090        4.76177730878847       -1.52583846259731
H           -3.29950465435648        3.38996131584184       -2.22945147627549
H           -1.12229046228611        1.37218621030580       -2.24577085873793
H           -2.11000297361953       -0.03208531366506       -2.63520733506819
H           -2.42785512451159        1.52195577414502       -3.41809027727337
H           -5.90085929940264       -1.64595230362113       -2.63474314393713
H           -4.34460900632557       -0.81721750217592       -2.54372763994636
H           -5.68876868017367       -0.27300585397735       -1.54853645170565
H           -6.36240010484626       -3.45323358987177       -1.32597527653349
