  49
        -80.71353071
 C          5.5717064965        1.3205689546        0.6422389108
 C          5.1890757114       -0.0242441828        0.0190891112
 C          5.5680455308       -1.1598738444        0.9789034549
 C          5.8970087881       -0.1873679353       -1.3266390981
 N          3.7438790107       -0.0451674005       -0.1910445236
 C          3.0995717634       -1.1247648779       -0.8066138034
 O          3.7052452574       -2.0552046053       -1.3547586070
 C          1.6902571506       -1.0032025941       -0.6747179765
 C          0.7080833333       -1.8789340473       -1.2134472016
 C         -0.6090286426       -1.5919558611       -1.0442586645
 C         -1.0346073603       -0.4389144970       -0.3067972036
 N         -2.3818052534       -0.1620783615       -0.1561724484
 C         -2.9730546768        1.0771976309       -0.3084048362
 C         -2.4031132772        2.2875373737       -0.6850472486
 C         -3.2350299221        3.3883565496       -0.7887443375
 C         -4.6021031440        3.2901767086       -0.5358147000
 C         -5.1827861501        2.0792096735       -0.1923774561
 C         -4.3707283797        0.9622840128       -0.0847024274
 C         -4.6226490594       -0.4212921466        0.2135927130
 C         -5.7653777052       -1.1409956214        0.5202405329
 C         -5.6430641764       -2.4941318156        0.7958709412
 C         -4.3988744518       -3.1225208254        0.7875372266
 C         -3.2436578894       -2.4252353630        0.4822111801
 C         -3.3632149132       -1.0765982974        0.1675172086
 C         -0.0648958926        0.4075390607        0.2751044379
 C          1.2468317708        0.1058826388        0.0994302399
 S          2.6851780380        0.9024704272        0.7417855457
 O          2.7603481289        2.2723676049        0.3266253158
 O          2.8758074681        0.6407861662        2.1404879998
 H          5.2409777383        2.1389229516        0.0082328058
 H          5.1064009411        1.4343045796        1.6172731277
 H          6.6520384022        1.3685527932        0.7562522711
 H          5.3173875859       -2.1172195139        0.5277753194
 H          5.0180616240       -1.0496457912        1.9110908688
 H          6.6343542241       -1.1329507752        1.1865582545
 H          5.6120903362       -1.1346253467       -1.7799665741
 H          5.6137460551        0.6183389874       -1.9996320971
 H          6.9736865661       -0.1717206638       -1.1813643583
 H          1.0400599280       -2.7297068944       -1.7867364933
 H         -1.3673347482       -2.1946634377       -1.5207645230
 H         -1.3500744300        2.3675028279       -0.9047691545
 H         -2.8166653428        4.3404890117       -1.0755225832
 H         -5.2191265658        4.1715877558       -0.6217803260
 H         -6.2450084986        2.0050107426       -0.0172971958
 H         -6.7289330391       -0.6560674677        0.5490411455
 H         -6.5231847254       -3.0705412850        1.0369306951
 H         -4.3341270850       -4.1710679594        1.0336044539
 H         -2.2801485953       -2.9091521961        0.5101518583
 H         -0.3645061647        1.2338533765        0.9008322288
  49
        -80.71304013
 C          5.4522502629       -1.8132837337       -0.2821420123
 C          5.1715201647       -0.3935626746        0.2245921561
 C          6.0060119950        0.6330231323       -0.5461522207
 C          5.4981423117       -0.2999181904        1.7163752961
 N          3.7534897872       -0.0944459596        0.0379663236
 C          3.1663448913       -0.0516984131       -1.2317126768
 O          3.8169120100       -0.0739684645       -2.2851134711
 C          1.7501625417        0.0136686031       -1.1268880326
 C          0.8197336689        0.1363705694       -2.1940642648
 C         -0.5102722873        0.2109773490       -1.9243047467
 C         -1.0019621328        0.1419394116       -0.5804718017
 N         -2.3620872366        0.2049074927       -0.3328590046
 C         -3.2453339030        1.1049259772       -0.8944251770
 C         -2.9954610202        2.1645925856       -1.7582032003
 C         -4.0703726036        2.9362334277       -2.1625569438
 C         -5.3622228295        2.6713357137       -1.7109321063
 C         -5.6137451029        1.6383167433       -0.8212145439
 C         -4.5529756694        0.8539567525       -0.3996334608
 C         -4.4357792423       -0.2489131289        0.5149314081
 C         -5.3443884959       -0.9427205320        1.2966857755
 C         -4.8866843358       -2.0067733434        2.0587456808
 C         -3.5472684377       -2.3912734574        2.0302621090
 C         -2.6201065378       -1.7118744168        1.2597577391
 C         -3.0648548881       -0.6213196873        0.5213522720
 C         -0.0865405058       -0.0136661529        0.4844872349
 C          1.2397223187       -0.0686175054        0.2007900038
 S          2.6159726884       -0.2758577800        1.2840518971
 O          2.7402147264        0.7979351720        2.2241354642
 O          2.6672471444       -1.6082915300        1.8196615770
 H          4.8198617266       -2.5222445080        0.2484406790
 H          5.2374046315       -1.8714528986       -1.3468353294
 H          6.4950869627       -2.0703126012       -0.1166551504
 H          5.7965712563        1.6353339651       -0.1800930870
 H          5.7583804819        0.5884815187       -1.6045593365
 H          7.0634212974        0.4174212665       -0.4182303063
 H          5.2325479516        0.6809501365        2.1015276194
 H          4.9430917853       -1.0478652589        2.2757694860
 H          6.5630721613       -0.4657416260        1.8614141598
 H          1.1953684295        0.1578768028       -3.2045868886
 H         -1.2315685045        0.2559228352       -2.7262247082
 H         -1.9940919204        2.3920647845       -2.0881427426
 H         -3.9039672535        3.7641682639       -2.8341428134
 H         -6.1770447103        3.2926574642       -2.0500808382
 H         -6.6129162689        1.4519370171       -0.4588050842
 H         -6.3866686641       -0.6635034028        1.3064540922
 H         -5.5807163678       -2.5581940772        2.6745698131
 H         -3.2272633249       -3.2396472730        2.6148056398
 H         -1.5908546357       -2.0325312541        1.2223994792
 H         -0.4329061187       -0.0252364109        1.5061938913
  49
        -80.71295302
 C          6.0539483255        0.5352434319       -0.4748870846
 C          5.1560781832       -0.4932513936        0.2179003083
 C          5.4817447246       -0.5283585843        1.7124897552
 C          5.3533451948       -1.8864285188       -0.3917745115
 N          3.7582177367       -0.0995576430        0.0539454006
 C          3.1788190099        0.0668025250       -1.2097273056
 O          3.8332199390        0.1050339890       -2.2602289780
 C          1.7648751725        0.1698900569       -1.1038435141
 C          0.8423020282        0.3854208486       -2.1633043111
 C         -0.4898331043        0.4405049303       -1.8987030127
 C         -0.9919245280        0.2647492405       -0.5685008894
 N         -2.3545825931        0.2692989152       -0.3284496220
 C         -3.2690260680        1.1711334346       -0.8340980253
 C         -3.0578189096        2.2954330239       -1.6233830454
 C         -4.1609094869        3.0483638262       -1.9849418100
 C         -5.4437658905        2.7023394752       -1.5633750221
 C         -5.6580796104        1.6033867850       -0.7459916256
 C         -4.5687515883        0.8360948603       -0.3682899407
 C         -4.4138276045       -0.3216030748        0.4695621010
 C         -5.2991905342       -1.1016384472        1.1948071862
 C         -4.8053144074       -2.1987197402        1.8839948886
 C         -3.4526311497       -2.5310233348        1.8366946315
 C         -2.5485148440       -1.7658389824        1.1211430616
 C         -3.0300558111       -0.6418347601        0.4598757498
 C         -0.0826436597        0.0391651106        0.4894463883
 C          1.2452783821        0.0024049678        0.2119508979
 S          2.6089499362       -0.3196583058        1.2826233809
 O          2.7715651313        0.6843811243        2.2912268916
 O          2.6040151402       -1.6856201722        1.7293616907
 H          5.8061906535        0.5864482456       -1.5329349792
 H          5.9066834718        1.5178832322       -0.0332717668
 H          7.0954793451        0.2451699003       -0.3664016244
 H          6.5361824063       -0.7594200164        1.8444548211
 H          4.8871154995       -1.2864859232        2.2144403668
 H          5.2656889337        0.4334182075        2.1699389352
 H          4.6761131049       -2.5923720964        0.0845926900
 H          5.1414505417       -1.8538873772       -1.4581194565
 H          6.3776157982       -2.2180397679       -0.2441762994
 H          1.2249939900        0.4843381568       -3.1665367267
 H         -1.2040386445        0.5493803291       -2.7007433804
 H         -2.0648828575        2.5852931574       -1.9287019319
 H         -4.0245185643        3.9251843745       -2.5987443106
 H         -6.2813106271        3.3112094812       -1.8681096634
 H         -6.6508804510        1.3528562776       -0.4054602499
 H         -6.3511926658       -0.8622990892        1.2172811017
 H         -5.4806468868       -2.8170647462        2.4554530371
 H         -3.1031704142       -3.4062658981        2.3617262751
 H         -1.5085926440       -2.0472528215        1.0666305067
 H         -0.4358448848       -0.0433854144        1.5055285775
  49
        -80.71267153
 C          5.9645614627       -1.1589227233        0.3907990832
 C          5.1811209398        0.0687619034       -0.0843344387
 C          5.4734710872        0.3604129801       -1.5608344582
 C          5.5617114890        1.2788301912        0.7702266500
 N          3.7509075082       -0.1884586448        0.0730111524
 C          3.1117838513       -1.2420186273       -0.5896866926
 O          3.7208196115       -2.1311509618       -1.1978819529
 C          1.6994439543       -1.1291689175       -0.4644568892
 C          0.7208014219       -2.0084844368       -1.0019389246
 C         -0.5998081489       -1.7270123782       -0.8461752326
 C         -1.0338984908       -0.5513784663       -0.1498195648
 N         -2.3778995908       -0.2371626650       -0.0710529031
 C         -2.9148302372        1.0195362759       -0.2803274579
 C         -2.2840815087        2.2006398773       -0.6544905559
 C         -3.0673000309        3.3310119068       -0.8098852034
 C         -4.4468343923        3.2888803387       -0.6168122270
 C         -5.0888486350        2.1047482278       -0.2886018340
 C         -4.3259750017        0.9596916643       -0.1286653837
 C         -4.6451180736       -0.4091356449        0.1701049294
 C         -5.8316305584       -1.0822575210        0.4092475925
 C         -5.7787729688       -2.4360502899        0.7021643141
 C         -4.5606151406       -3.1095706041        0.7805720938
 C         -3.3626782030       -2.4591449156        0.5428442772
 C         -3.4099111882       -1.1111688633        0.2066836976
 C         -0.0663628479        0.3198371846        0.4014219878
 C          1.2477197598        0.0205195649        0.2441919879
 S          2.6710229327        0.9500355601        0.7131400316
 O          2.7369715608        2.1809549019       -0.0257277473
 O          2.8409328691        1.0447934522        2.1325411834
 H          5.7471507091       -1.3578942076        1.4374790857
 H          5.6794469137       -2.0271324785       -0.1988751005
 H          7.0302826506       -0.9821905766        0.2731461423
 H          4.8781519975        1.2087927839       -1.8920140150
 H          5.2202776449       -0.5087535182       -2.1635413530
 H          6.5271736485        0.5894547280       -1.6948484319
 H          5.0399068175        2.1674152712        0.4260513255
 H          5.2960009264        1.1077234274        1.8099464007
 H          6.6337711775        1.4461539299        0.6974830681
 H          1.0546648211       -2.8733700970       -1.5527052177
 H         -1.3499836490       -2.3479928905       -1.3113957102
 H         -1.2220765290        2.2382658688       -0.8394841624
 H         -2.5995303786        4.2605101976       -1.0943934728
 H         -5.0249952125        4.1914502035       -0.7430679012
 H         -6.1603020062        2.0725588319       -0.1648405211
 H         -6.7756853636       -0.5609653053        0.3715349321
 H         -6.6938465876       -2.9771488006        0.8889360193
 H         -4.5513185189       -4.1569598478        1.0395191771
 H         -2.4229722689       -2.9801827591        0.6358859213
 H         -0.3701053174        1.1733265081        0.9871776747
  49
        -80.71242865
 C          6.0206699302       -0.9015859602       -0.7238002579
 C          5.1445927354       -0.0883412589        0.2289771338
 C          5.3516970361        1.4172747151        0.0152163840
 C          5.4875043626       -0.4535433430        1.6762218571
 N          3.7383214809       -0.4049485384       -0.0090523635
 C          3.1472873554       -0.2338211800       -1.2679106826
 O          3.7988940583       -0.0506098819       -2.3061220366
 C          1.7321234374       -0.2471510880       -1.1630657238
 C          0.8067934385       -0.0762896260       -2.2292897457
 C         -0.5240985716       -0.0369296690       -1.9598998681
 C         -1.0187380728       -0.1511212769       -0.6207483686
 N         -2.3698055857        0.0148122053       -0.3609587886
 C         -3.1422829051        1.0532170386       -0.8398447922
 C         -2.7704204976        2.1286003342       -1.6372843586
 C         -3.7398299556        3.0643899572       -1.9508961625
 C         -5.0436170415        2.9421237850       -1.4745663466
 C         -5.4138844840        1.8859591850       -0.6558225794
 C         -4.4604062461        0.9370326343       -0.3265079339
 C         -4.4665222690       -0.2331129184        0.5101249368
 C         -5.4403102943       -0.8626818979        1.2670098909
 C         -5.1022815547       -2.0202552029        1.9510466987
 C         -3.8173251050       -2.5554061414        1.8750322349
 C         -2.8257781119       -1.9419191065        1.1305159451
 C         -3.1516451977       -0.7680868816        0.4615594108
 C         -0.1097754059       -0.3325739416        0.4431036649
 C          1.2184605075       -0.3622460116        0.1597762340
 S          2.6014498602       -0.3618786940        1.2557231513
 O          2.6930950134        0.8755538860        1.9795587399
 O          2.6955274516       -1.5653634407        2.0275010875
 H          5.7490551748       -0.6774973459       -1.7538998438
 H          7.0661469132       -0.6495307073       -0.5676996968
 H          5.8769545670       -1.9654926469       -0.5517991037
 H          4.6796243231        1.9733247561        0.6655263146
 H          5.1379934625        1.6716971004       -1.0205528752
 H          6.3782996452        1.6907481729        0.2433404952
 H          4.9240465982        0.1641529818        2.3693660036
 H          5.2443949398       -1.4949427449        1.8698157687
 H          6.5503211147       -0.2956695098        1.8430102646
 H          1.1916503788       -0.0054813300       -3.2341186848
 H         -1.2465652260        0.0301124633       -2.7596198124
 H         -1.7542894179        2.2428297647       -1.9806283316
 H         -3.4775587971        3.9112154685       -2.5659674760
 H         -5.7726486510        3.6936476896       -1.7366691496
 H         -6.4205480396        1.8094451226       -0.2748692398
 H         -6.4414206876       -0.4629058448        1.3169141888
 H         -5.8490399366       -2.5242443318        2.5455132088
 H         -3.5929007507       -3.4682854291        2.4045284746
 H         -1.8364308733       -2.3667538750        1.0622475840
 H         -0.4609415819       -0.3706985743        1.4626892704
  49
        -80.71235867
 C          5.5368640008        1.3099005771        0.7634885423
 C          5.1613233316        0.1442712278       -0.1526723834
 C          5.9739529317       -1.0928136741        0.2468311532
 C          5.4260910022        0.5163214682       -1.6154691663
 N          3.7372347600       -0.1422468491        0.0056678776
 C          3.1059185799       -1.1866419305       -0.6769265932
 O          3.7184458581       -2.0243448861       -1.3508572095
 C          1.6979699211       -1.1289473987       -0.4835117323
 C          0.7231869936       -2.0065002220       -1.0320494786
 C         -0.5980611675       -1.7377114140       -0.8609351190
 C         -1.0338546280       -0.5814783985       -0.1336290219
 N         -2.3751210715       -0.2505874399       -0.0710451408
 C         -2.8853032093        1.0156791465       -0.2879838969
 C         -2.2239050187        2.1820116662       -0.6540951890
 C         -2.9834282445        3.3238126345       -0.8402094087
 C         -4.3675909166        3.3067601272       -0.6793704646
 C         -5.0376912915        2.1384736414       -0.3497138928
 C         -4.2991886681        0.9816199861       -0.1615442158
 C         -4.6473759087       -0.3808350047        0.1363759360
 C         -5.8480785275       -1.0322405845        0.3635455811
 C         -5.8226200901       -2.3871163313        0.6558439929
 C         -4.6184754710       -3.0844890956        0.7414017973
 C         -3.4063544404       -2.4561345668        0.5168831824
 C         -3.4258785361       -1.1056544439        0.1888570130
 C         -0.0711244919        0.2624764556        0.4648437039
 C          1.2432148610       -0.0321699839        0.3025195942
 S          2.6640833805        0.8504660132        0.8606216521
 O          2.6798397370        2.1849456748        0.3296318812
 O          2.8866572625        0.7188625448        2.2703891073
 H          4.9995261468        2.2092741189        0.4760564241
 H          5.2855935133        1.0768328347        1.7948511271
 H          6.6058879281        1.4948920691        0.6894224915
 H          5.7043842103       -1.9292013762       -0.3939176519
 H          5.7650083264       -1.3583757560        1.2804969804
 H          7.0351796893       -0.8857606433        0.1378981044
 H          5.1693132180       -0.3210658476       -2.2600433500
 H          4.8189690680        1.3757698523       -1.8920439816
 H          6.4754664194        0.7612251019       -1.7548776085
 H          1.0613729748       -2.8503678717       -1.6119443342
 H         -1.3485546407       -2.3499082557       -1.3372657776
 H         -1.1561693017        2.1984633368       -0.8068094070
 H         -2.4929677115        4.2425800813       -1.1212556858
 H         -4.9268755008        4.2176873680       -0.8290253591
 H         -6.1119563890        2.1272652958       -0.2488145701
 H         -6.7820186751       -0.4934387121        0.3194435631
 H         -6.7492048478       -2.9104582337        0.8367746176
 H         -4.6318276965       -4.1328702114        0.9960830240
 H         -2.4767151869       -2.9945463582        0.6129458556
 H         -0.3805360556        1.0883357841        1.0865102576
  49
        -80.71195778
 C          5.9765488408        0.3472495972       -0.2136615101
 C          5.0696322187       -0.8201369137        0.1979358538
 C          5.3125518510       -1.1509874269        1.6713635426
 C          5.3453218041       -2.0519518918       -0.6686034499
 N          3.6728888754       -0.4304757291        0.0250135131
 C          3.1466997517       -0.0747621729       -1.2221586783
 O          3.8180887821       -0.0643165015       -2.2604381363
 C          1.7702548674        0.2614041450       -1.0979803266
 C          0.8668892734        0.5875026852       -2.1478951428
 C         -0.4628289430        0.6795351669       -1.8828899249
 C         -0.9738296534        0.4801408043       -0.5574091935
 N         -2.3331773424        0.3947392058       -0.3218521978
 C         -3.3228560639        1.2120072371       -0.8264760028
 C         -3.2137075600        2.3544513218       -1.6109772730
 C         -4.3807436543        2.9997311304       -1.9796349305
 C         -5.6284087923        2.5319349268       -1.5693909170
 C         -5.7435749777        1.4150385362       -0.7565500722
 C         -4.5894504460        0.7535952998       -0.3723883616
 C         -4.3344473379       -0.3926784381        0.4568148106
 C         -5.1494060706       -1.2623805828        1.1631053515
 C         -4.5615233851       -2.3192154167        1.8409980225
 C         -3.1839208450       -2.5243954666        1.8005147036
 C         -2.3495343086       -1.6682606840        1.1036455552
 C         -2.9281012131       -0.5836889656        0.4548388118
 C         -0.0672200083        0.2771350157        0.5087781200
 C          1.2572053123        0.2032134813        0.2285174172
 S          2.6140757818       -0.1134588211        1.3101415824
 O          3.0420325330        1.0461789886        2.0378200969
 O          2.3851466677       -1.3062302323        2.0740549188
 H          5.8137077772        0.5809560348       -1.2630287405
 H          5.7458419978        1.2246039644        0.3864459780
 H          7.0182996505        0.0760102464       -0.0650507804
 H          6.3521719489       -1.4386714169        1.8085288894
 H          4.6704420967       -1.9680557562        1.9887926007
 H          5.0975495325       -0.2868844303        2.2945257780
 H          4.6803596205       -2.8639422535       -0.3826404204
 H          5.1758394853       -1.8116003540       -1.7156067116
 H          6.3756347747       -2.3724543205       -0.5408246430
 H          1.2579656382        0.6938031824       -3.1470766963
 H         -1.1715658135        0.8275527309       -2.6831724772
 H         -2.2507967427        2.7392893931       -1.9077273783
 H         -4.3244622786        3.8871747546       -2.5908053703
 H         -6.5177419301        3.0593874675       -1.8791222761
 H         -6.7105197658        1.0691152405       -0.4251860294
 H         -6.2192671713       -1.1227366359        1.1784855606
 H         -5.1806577839       -3.0059979421        2.3977110478
 H         -2.7572746392       -3.3709126303        2.3153736704
 H         -1.2877996240       -1.8527087028        1.0555458371
 H         -0.4219630765        0.2423142335        1.5272177121
