  43
        -65.04284858
 C         -2.4139282221        3.5991316006        0.2312301309
 C         -1.0362501883        3.6588666716        0.3813949667
 C         -0.2896358547        2.4936289610        0.3707456738
 C         -0.8978585188        1.2571192530        0.2197297870
 C         -2.2905933866        1.2012356453        0.0801971492
 C         -3.0394743204        2.3782978675        0.0834678857
 N         -2.9201494337       -0.0140359222       -0.0527700618
 C         -2.2764762760       -1.2179217094        0.1116032323
 C         -3.0110442721       -2.4035185491        0.1432685027
 C         -2.3712712877       -3.6125019040        0.3234290043
 C         -0.9930861159       -3.6516867966        0.4773383302
 C         -0.2605488616       -2.4784382185        0.4375215197
 C         -0.8832705449       -1.2533669770        0.2543094230
 C         -0.0605482170        0.0051025597        0.1282211071
 C          1.1085853097        0.0247193170        1.0922552016
 C          1.0863763455        0.0436196199        2.4502425512
 C          2.3057709934        0.0591513938        3.1555968933
 C          3.5318456664        0.0547352104        2.4601917523
 C          3.5840449185        0.0353170980        1.0975598149
 C          2.3595198686        0.0187935280        0.3567680885
 C          2.0944735639       -0.0049229966       -1.0012304557
 C          2.9487695423       -0.0229829109       -2.1495522600
 C          2.3880062638       -0.0500421703       -3.3906857317
 C          0.9880509123       -0.0598618968       -3.5732338712
 C          0.1256682247       -0.0417371729       -2.4623371071
 C          0.6590329257       -0.0141817424       -1.2130588242
 H         -3.0005825872        4.5054941203        0.2321408643
 H         -0.5452105090        4.6123478660        0.5004885579
 H          0.7839484514        2.5378030814        0.4776673635
 H         -4.1135393163        2.3217469978       -0.0276604172
 H         -3.9269864673       -0.0209742209       -0.1298220231
 H         -4.0854615146       -2.3623896678        0.0285452121
 H         -2.9466501869       -4.5257272560        0.3463646428
 H         -0.4906501908       -4.5957240088        0.6213490184
 H          0.8134125215       -2.5063067451        0.5465609029
 H          0.1509035899        0.0471423528        2.9925371147
 H          2.3013661623        0.0747261270        4.2337015735
 H          4.4482198693        0.0670702868        3.0338109232
 H          4.5250334892        0.0315318731        0.5690417100
 H          4.0195030566       -0.0164150361       -2.0137544977
 H          3.0199332073       -0.0648712337       -4.2677393629
 H          0.5790018341       -0.0818109281       -4.5706098597
 H         -0.9451697587       -0.0497070366       -2.6135329803
