114
 energy: -158.285551303277 gnorm: 0.000136601353 xtb: 6.7.1 (edcfbbe)
C            6.09164833388605       -4.08277608480593       -0.58852558884142
C            6.50644580456546       -2.63441104737467       -0.31197061462781
C            7.03709972268839       -2.55583157065582        1.12769131623121
C            7.62347287377650       -2.26100415439094       -1.29871324937770
C            5.35527992135238       -1.65394513952249       -0.47327918753727
C            5.58698385503513       -0.29093815805029       -0.24489811400233
C            4.60191750911694        0.66905718419843       -0.36660599138039
C            3.32545162872171        0.25327470973548       -0.71921772960648
C            3.07228719321878       -1.11089273628907       -0.98509304728565
C            4.08012099031121       -2.05355383431647       -0.85670462725024
C            1.68895653481475       -1.20098503270327       -1.38083106866684
C            0.87448842019447       -2.25285749481646       -1.75898013551796
C           -0.46542497688005       -2.02428693203674       -2.06817012502519
C           -1.33279582048915       -3.18670554850958       -2.52396061515720
C           -2.78804440885533       -2.78034013467597       -2.77387181346282
C           -1.32660126640758       -4.28007895208939       -1.44709854359458
C           -0.75546670433805       -3.74410622156427       -3.83488651256193
C           -0.95933549861504       -0.72258647859380       -1.96093161068994
C           -0.16324159114615        0.34856724672930       -1.59901068172947
C            1.17712854452998        0.11414143904913       -1.33275993386735
N            2.17577719340823        0.98608855296158       -0.93870984968032
C            1.98898273222992        2.35877879861250       -0.76642527726278
C            1.25631237630303        3.07086507055989       -1.71785488453824
C            0.89590230696683        4.37715941589067       -1.47827367861214
C            1.28826330267338        5.02005479703429       -0.30211674596067
C            0.71901169122944        6.36563373087657       -0.01942109858781
O            1.40440581354975        7.39934719569809        0.12926778971337
C           -0.75093239482546        6.36227607584656       -0.00804625848514
O           -1.44108740839756        7.39210163560762       -0.16173508335761
C           -1.31395133770265        5.01541753939965        0.28079342268200
C           -0.91867291444047        4.37967231752387        1.45984396888031
C           -1.27250909265408        3.07259701900108        1.70500941193427
C           -2.00113920151988        2.35264866184282        0.75641327318626
N           -2.18073643338396        0.97965163070251        0.93428408411605
C           -1.17755468081748        0.11437872605967        1.33179135229600
C            0.16140704284154        0.35679268733667        1.59787969655786
C            0.96306331721311       -0.70895344395402        1.96353899720927
C            0.47610327259752       -2.01295014661123        2.07466488846274
C            1.34949680580070       -3.16940939251593        2.53419713994739
C            0.77508841870139       -3.72565745422209        3.84688674246705
C            2.80263823230438       -2.75473482923840        2.78269635647426
C            1.34901808056168       -4.26619600725493        1.46079203506692
C           -0.86240282490556       -2.24962552756105        1.76570169782939
C           -1.68234746879072       -1.20330055951295        1.38394150297994
C           -3.06588268632940       -1.12204647321604        0.98713078711883
C           -4.06847236905214       -2.07066677015447        0.86122986110650
C           -5.34545595001346       -1.67937700053217        0.47546819449150
C           -6.49105663147310       -2.66674321141365        0.31633779547833
C           -7.61140187853315       -2.29579431571747        1.30022070988905
C           -7.02029420740951       -2.59638118609528       -1.12426390951585
C           -6.06871362399795       -4.11178395534569        0.59880236311850
C           -5.58446212495120       -0.31842850362951        0.24243089554872
C           -4.60478804341400        0.64738293736557        0.36174791273425
C           -3.32632023081608        0.23979826843667        0.71655554395302
C           -2.48005618357355        3.01457269214325       -0.37544172203530
C           -2.15583566885963        4.33987469665256       -0.59745674058890
C            2.13357973458545        4.35251839410915        0.57896091175212
C            2.46462188269149        3.02796648969199        0.36252527647409
H            6.95011349869611       -4.73645626390469       -0.44779335162559
H            5.31058356167811       -4.40446662758660        0.09583691419186
H            5.74548623171559       -4.20300268491867       -1.61258059655574
H            7.85350009034637       -3.26214416160073        1.26253521417802
H            7.40768599847818       -1.56200191110811        1.36278442267502
H            6.24745129177637       -2.80188622885990        1.83433316367511
H            8.44648790037976       -2.96754983422609       -1.21431766624840
H            8.01111594182826       -1.26468583582703       -1.10491838312513
H            7.24918865038426       -2.28805169471504       -2.32041442775450
H            6.57625328624250        0.03836671549339        0.03218297765493
H            4.83148886633266        1.71135982170428       -0.20723373540140
H            3.85699428580584       -3.08575876122594       -1.06644605294943
H            1.29038808672944       -3.24595137519286       -1.81842082401308
H           -3.24561419894823       -2.39010565456191       -1.86707455762028
H           -3.35459474193791       -3.65369911052251       -3.09155067079820
H           -2.86096693043712       -2.03447449748382       -3.56223422153556
H           -1.68723374270929       -3.86813942819551       -0.50847897403351
H           -0.32958699655838       -4.68003726033885       -1.29035693624154
H           -1.97717164773937       -5.09967922328264       -1.74507907168170
H           -0.74690503051500       -2.97223817211141       -4.60219705863378
H            0.26188940445285       -4.10104515518444       -3.70018908668310
H           -1.36447969210629       -4.57351770908137       -4.18819993872967
H           -1.99827393793401       -0.52437815582851       -2.16326694356981
H           -0.58561954141875        1.33804161942051       -1.51683844839514
H            0.97189431770170        2.59194508986423       -2.64197049471929
H            0.30466282089723        4.91672619559754       -2.20314221054682
H           -0.33042717707978        4.92543292005410        2.18250997820981
H           -0.98578708196878        2.59911603980256        2.63121165140040
H            0.57858437489468        1.34821490346762        1.51267884497561
H            2.00085254899883       -0.50453542707891        2.16561444093924
H            0.76377238184523       -2.95175478016325        4.61210725887422
H            1.38759470647447       -4.55167758707945        4.20211831767527
H           -0.24089608068536       -4.08704015826680        3.71363979013555
H            3.25808970137420       -2.36490027186941        1.87466547404692
H            2.87178372585502       -2.00611485953874        3.56878840790628
H            3.37371430101514       -3.62419257248474        3.10294794441507
H            0.35417724556764       -4.67216541110628        1.30569628844213
H            1.70697221304495       -3.85516562093693        0.52075369515353
H            2.00421807570866       -5.08127173488608        1.76103789378100
H           -1.27298631373353       -3.24474593373798        1.82796585638486
H           -3.83990306396121       -3.10090904693930        1.07467440921985
H           -8.00408838230138       -1.30223918514499        1.10242960954280
H           -7.23828536591263       -2.31722096763955        2.32247708976543
H           -8.43057799692391       -3.00697409249303        1.21731804552174
H           -6.22880813267840       -2.84237644296662       -1.82886945883068
H           -7.39442708464675       -1.60500211591982       -1.36407262281023
H           -7.83378837371825       -3.30643013870955       -1.25707782246488
H           -6.92338352688308       -4.77070162741144        0.45937206631244
H           -5.72323133693602       -4.22629711760990        1.62374068545988
H           -5.28500635375134       -4.43172634883032       -0.08334843603226
H           -6.57529205351159        0.00453292847113       -0.03653571618158
H           -4.83999646392228        1.68787342118063        0.19884939990006
H           -3.06530605010844        2.47867576439609       -1.10688213399232
H           -2.50696449313578        4.84217535216641       -1.48671082150742
H            2.48228224618945        4.86044150216517        1.46597984988063
H            3.05279581832190        2.49819648335656        1.09608480291453
