114
 energy: -158.348798230806 gnorm: 0.000059803937 xtb: 6.7.1 (edcfbbe)
C           11.18230246152858        2.42948143310578        2.29330525721880
C           10.78072397375294        2.32332559535608        0.81444693781004
C           10.91603190897757        3.69629048893598        0.13897321670020
C           11.75072442342820        1.35837276173749        0.12544647475816
C            9.33305562002546        1.86127403473550        0.72345497077203
C            8.33048276443660        2.65436328905097        1.29593694763882
C            6.99105958087941        2.31944374784808        1.25547733695468
C            6.63074865051192        1.14917875366243        0.60615761387012
C            7.62355951074114        0.31385966931995        0.05717929479554
C            8.96308710979975        0.67417096688177        0.11061680673704
C            6.94479447036242       -0.84327027174233       -0.46496575165018
C            7.38622097254030       -1.97332230292872       -1.13323116239299
C            6.47477165587299       -2.93383113016872       -1.55530858525911
C            6.98660406757889       -4.17365080234386       -2.27643347798518
C            7.71958995972078       -3.74356486915528       -3.55614950225668
C            5.86501808898270       -5.13860263539847       -2.67270854852139
C            7.95552707706712       -4.92474300620984       -1.35062601288575
C            5.11749658003581       -2.71329651429776       -1.30868950748266
C            4.65004996195480       -1.59239330410098       -0.64376853561554
C            5.57179712502367       -0.66196189764895       -0.19588125934189
N            5.38547423773181        0.55295385844775        0.45099052026921
C            4.17651005947427        1.08201783629474        0.87599236131738
C            3.88198997612204        2.43274299134426        0.65475146955929
C            2.69411809049270        2.96212548238958        1.09859838802706
C            1.76426733533982        2.16598032213256        1.77955980422993
C            0.52825018298190        2.77695300964335        2.26619050896113
O            0.23122778150525        3.94888041662688        2.08650118577146
C           -0.39963269729871        1.89586474669370        3.10143787666718
O           -0.10135264889772        1.62806241266555        4.25569276981744
C           -1.65491752907669        1.49510591177828        2.46748975080143
C           -2.65475038225800        0.89976657365285        3.24675539695940
C           -3.86617057838865        0.55667578129548        2.69545499884589
C           -4.11268025466595        0.79284956789141        1.33789041570353
N           -5.34225830356993        0.47519460637704        0.78161825427625
C           -6.07049319152226       -0.68565925338114        1.00779734853623
C           -5.74167059917247       -1.82846667174411        1.71625689054123
C           -6.65537992128326       -2.86816245429458        1.74723058740084
C           -7.88356423697724       -2.81394198272630        1.08367525678074
C           -8.89523026933548       -3.95094706674882        1.13692051889137
C           -9.14115165070798       -4.47344685538192       -0.28652162198489
C          -10.20916083455814       -3.41953115577712        1.72987237560893
C           -8.42677818025599       -5.12637991791320        2.00018835793294
C           -8.18228457473562       -1.67799237630800        0.34081666679925
C           -7.28585580889695       -0.62302625626164        0.29425766074244
C           -7.29763271082506        0.64444964994126       -0.38824319950590
C           -8.23353041624886        1.26402359387742       -1.20513384400292
C           -7.98232528730039        2.53412669509182       -1.70056197721132
C           -8.95833924706486        3.27053084251714       -2.60775236845956
C          -10.20753513926153        2.44212339828689       -2.92421860433416
C           -9.40803444480483        4.56713647779748       -1.91774972179051
C           -8.25916428237866        3.60299719064340       -3.93448183519939
C           -6.78692744386792        3.16579407590533       -1.33454599757589
C           -5.83941027248713        2.57165885184697       -0.52384219738974
C           -6.08541454802844        1.28662808174989       -0.06663768874594
C           -3.10549884361450        1.36261148421090        0.55011323342874
C           -1.89572696894437        1.71054204788258        1.10622565579537
C            2.05193342253975        0.81172073420681        1.98139418405039
C            3.24035401909261        0.27831919169668        1.53688124137446
H           12.22312250671611        2.73549656810728        2.37739843359191
H           10.57067349542575        3.15704777252414        2.81980080861322
H           11.06469174672491        1.46588975213327        2.78561191778532
H           11.95027224006486        4.03216556532388        0.17885742500538
H           10.61336457535098        3.63360257157190       -0.90462407442601
H           10.29803943366563        4.44383302682824        0.62861599144962
H           12.76492028341542        1.74424982687788        0.20863188652712
H           11.51586073777960        1.25637201779431       -0.93173293886148
H           11.72680377529613        0.37727130342252        0.59438827039100
H            8.60220251547795        3.56874152426829        1.80075002874425
H            6.25843809361321        2.95125104473812        1.73420841714916
H            9.69318602997913        0.01164711625980       -0.32275535641356
H            8.44192340732592       -2.08772236156779       -1.32322897225770
H            8.57602129156274       -3.11416754225649       -3.33076985105952
H            7.04778193892136       -3.18508937767457       -4.20526752769619
H            8.07364086966797       -4.61889150120960       -4.09699134069236
H            5.32350196838680       -5.49144641993599       -1.79776692048382
H            6.29424598913707       -6.00482211800810       -3.17272864168623
H            5.16646288684581       -4.66735369158687       -3.36055749808279
H            8.81045590154308       -4.30850381415356       -1.08650691161115
H            7.44891185557927       -5.21588808649597       -0.43234035636200
H            8.32264276962475       -5.82361486213338       -1.84185413252304
H            4.38635805429491       -3.42936985597267       -1.64537165238864
H            3.58948875870474       -1.45411934767230       -0.49809642508131
H            4.58352073369998        3.04827861128031        0.11325100200617
H            2.45156134727015        4.00117162073461        0.93002222712095
H           -2.45880720290178        0.74318571468181        4.29740331595590
H           -4.64529683337863        0.13756678684102        3.31307063311672
H           -4.79528346406258       -1.92581617846372        2.22610423690391
H           -6.38594040602094       -3.74697267599839        2.30917133348642
H           -8.21057706409984       -4.83377170089027       -0.72101254826536
H           -9.53933790135761       -3.69556486601474       -0.93205428538809
H           -9.85350889254266       -5.29569890845829       -0.26536758207676
H          -10.62707964593089       -2.62365358747551        1.11962565788113
H          -10.94273750711009       -4.22064901724660        1.79384561437661
H          -10.03853141792608       -3.02727106690336        2.73074797813230
H           -9.19343906132154       -5.89889954093424        2.00462832444943
H           -7.51307971620313       -5.56454384709390        1.60485829519096
H           -8.25901730915397       -4.81528827040203        3.02891222290574
H           -9.10640809190228       -1.60191608762532       -0.21047687404486
H           -9.14764315256936        0.74131444658884       -1.43093821273417
H          -10.86064061108779        3.01022725537883       -3.58386774723394
H          -10.76492916757898        2.21200066016082       -2.01896845692014
H           -9.94496650078900        1.51511210135195       -3.42906576686040
H           -9.88200121692322        4.34153621586560       -0.96424156785717
H          -10.12510193583682        5.09475333693817       -2.54342620997477
H           -8.56780685273487        5.23028471060611       -1.73106054071314
H           -8.94980766682567        4.11096712674047       -4.60451633406520
H           -7.91688549313514        2.69009534483177       -4.41835534648269
H           -7.39963534744608        4.24947188268469       -3.78013745867750
H           -6.58571770323808        4.16516925985067       -1.68897279862015
H           -4.94580888497804        3.11071877482336       -0.24806825431835
H           -3.27729636846288        1.50767404631288       -0.50519624779077
H           -1.12519449886623        2.14483951798302        0.48651256053235
H            1.34734465302928        0.18576507976396        2.50827436199146
H            3.47214225437418       -0.75807470538531        1.72752875265565
