85
 energy: -138.858647972553 gnorm: 0.000037801779 xtb: 6.7.1 (edcfbbe)
C           -7.72014637532176       -4.11111794825347        1.28336400369911
O           -7.01333043256758       -2.91643641937648        1.53334152509489
C           -5.73403206829993       -2.80644788553056        1.06453007334437
C           -5.09752599188821       -1.59085320399822        1.36025645707016
C           -3.80902138115381       -1.32535085419349        0.95013774401215
C           -3.14395100036045       -2.29671739906312        0.21396161816753
C           -3.76247944190075       -3.53260888193215       -0.06076646257262
C           -5.06237920257973       -3.79228901762242        0.35906879093897
C           -2.79903515580080       -4.32783783071579       -0.77173798481254
C           -2.83894548414496       -5.60316579205631       -1.32062121950839
C           -1.72337661150626       -6.07334732660209       -1.98490758374928
C           -0.58709409475887       -5.27977771354085       -2.12216739384762
C           -0.52485968526341       -4.00729192629364       -1.58457652206989
C           -1.63021267424057       -3.54173835756126       -0.88660709031590
N           -1.84752597914174       -2.31094832212359       -0.28653517053130
C           -0.92814655462600       -1.27295312118802       -0.19684052172438
C           -1.31710491060492        0.03652622347637       -0.47853928194204
C           -0.41111924648609        1.08054422426702       -0.37323250120207
N           -0.82875061128349        2.38790446732574       -0.62647933410318
C           -1.43469658849380        2.83224922834498       -1.78753125455361
C           -1.73210347491350        2.13489760583100       -2.94894909091500
C           -2.31965576309149        2.83386327726270       -3.98688313085807
C           -2.59767577291446        4.19486648904181       -3.88031759921138
C           -2.28583259928778        4.89684352881262       -2.73261279607182
C           -1.69602327017809        4.21661304900348       -1.67442973095105
C           -1.23968872973529        4.61542396775877       -0.37107800463618
C           -1.26698326716993        5.83032745259402        0.30545663082617
C           -0.77481857910751        5.87235551558682        1.59999420536788
O           -0.73692998156199        6.99277614389723        2.38318523429212
C           -1.21094010428551        8.20639147565821        1.84239215629506
C           -0.28218227878287        4.70816499936836        2.21063136728221
C           -0.24878498436274        3.50043861653163        1.54938305608636
C           -0.71032259876765        3.46267098897346        0.24163089074126
C            0.92634856452262        0.81806697699311       -0.01905987952225
C            1.85815406167089        1.87121233425458        0.06910818375802
N            2.61723370436274        2.73010570180119        0.14036303329822
C            1.32077578730526       -0.50745625562658        0.24683657653486
N            2.64170959905195       -0.79515607299508        0.59210446735303
C            3.05015777772634       -1.46487206765035        1.73144801054262
C            2.29257165706468       -1.96087656510016        2.78205638798156
C            2.96164782767103       -2.57258276208773        3.82578635016318
C            4.35053653207252       -2.68187683314720        3.83354771071750
C            5.10978802217060       -2.17110694430170        2.79917959914402
C            4.46059075260586       -1.55460456268277        1.73678068403836
C            4.91689974808228       -0.92262545363834        0.52918347398946
C            6.18231523964718       -0.74340380873285       -0.01939130587614
C            6.28122414946745       -0.11895023990711       -1.25230961590458
O            7.45503158312607        0.12659442954536       -1.90943515094055
C            8.66403725353974       -0.24720627161592       -1.28602708564066
C            5.12559151253581        0.29793233056921       -1.93162398945817
C            3.86780302743897        0.12602091767142       -1.39732501603024
C            3.76820008587655       -0.46695755004503       -0.14711758661655
C            0.39066082955555       -1.53322781578564        0.17520338953432
H           -8.70069147358538       -3.96961016389988        1.73504628833256
H           -7.22723511665039       -4.97121474874344        1.74722468392903
H           -7.83654837363104       -4.28907088211445        0.20978916784084
H           -5.65159789355041       -0.86181252423363        1.93036428359512
H           -3.34080628212739       -0.39057797215506        1.21550665460947
H           -5.51298796739221       -4.74517696797645        0.13617182976655
H           -3.72820729227702       -6.20867451365420       -1.23321339319568
H           -1.73187709253466       -7.06337266191868       -2.41597353337638
H            0.26432807669968       -5.66360043021360       -2.66457440112775
H            0.35539206228930       -3.39835772124788       -1.72269876001981
H           -2.33031073939779        0.24705962083519       -0.78162975562745
H           -1.50830565559882        1.08301194919045       -3.04593653353501
H           -2.56490738067475        2.31344572314707       -4.90090451053261
H           -3.05824843949720        4.70595762622944       -4.71261160785739
H           -2.48998304095231        5.95405696645228       -2.65733654175546
H           -1.67164635434711        6.70177186679646       -0.18205807473380
H           -0.63511459120262        8.50173727208464        0.95985688948479
H           -1.07510692162521        8.94769767601756        2.62822503930109
H           -2.27247907926747        8.14058446096684        1.58397476001710
H            0.07276588052013        4.78702109092299        3.22607277756626
H            0.12589695272807        2.61839553631871        2.04634428912441
H            1.21681442764259       -1.86819029078063        2.79244895421797
H            2.39445319311340       -2.97161045944196        4.65364533172124
H            4.83685531381783       -3.16720160122869        4.66669577607460
H            6.18656809719864       -2.24421987562004        2.81347253028250
H            7.04878381552595       -1.09527929990285        0.51564834577780
H            9.45245363250868        0.06152413245211       -1.97058263184411
H            8.71702529386139       -1.33000385976014       -1.13494782064657
H            8.79310014798491        0.26449993704581       -0.32736768410709
H            5.25209932765272        0.76146905855722       -2.89729067843674
H            2.99551656369126        0.44610039447092       -1.94674373789469
H            0.69839808818374       -2.53936607975373        0.41155674635478
