85
 energy: -138.859615004607 gnorm: 0.000199752884 xtb: 6.7.1 (edcfbbe)
C           -2.39979017462834       -8.08965399941054        2.47530530281406
O           -2.76857920762741       -6.72955581491681        2.53478347791232
C           -1.97325721412832       -5.81154594587538        1.90756624174531
C           -2.40277185705847       -4.48007421357177        2.02112347419617
C           -1.71292678666924       -3.44041242745533        1.43637002565267
C           -0.56989613984692       -3.74123036533022        0.70770316072700
C           -0.11149313572602       -5.07045721605590        0.61689966464785
C           -0.81344675163070       -6.11311731024947        1.21165815360724
C            1.11541658630314       -5.03421225508152       -0.13086280610976
C            1.99852153741344       -6.01782450089967       -0.55737934975294
C            3.09869678257336       -5.64280869224644       -1.30303557288907
C            3.31088634266499       -4.30835042581854       -1.64011523975199
C            2.44335311855064       -3.31398706054901       -1.22823763982651
C            1.35378624378274       -3.67853739516929       -0.45131368336419
N            0.32562157563441       -2.90039823640396        0.05669950595418
C            0.20611342787062       -1.51925546603743       -0.04948196041338
C           -1.02436889416205       -0.95181620253923       -0.38114981955938
C           -1.17274979187490        0.42512357009191       -0.45447869354801
N           -2.40577295863690        0.97397334519669       -0.80166812436367
C           -3.15303501580437        0.64111883126117       -1.91890486268009
C           -2.87410265217312       -0.26501568279374       -2.93126807423852
C           -3.78888907427686       -0.38348941743715       -3.96115483951686
C           -4.94985391959784        0.38553501834284       -3.99427271759504
C           -5.22038619088559        1.30564339183302       -3.00069745934920
C           -4.31712432473363        1.44155343810062       -1.95396336996508
C           -4.27038960153244        2.28759829535346       -0.79303972618833
C           -5.14428144227310        3.24617864777449       -0.29181213010529
C           -4.81737393760149        3.87528275668776        0.89880340655180
O           -5.57408207778687        4.83924517842512        1.50464754411862
C           -6.76397199839308        5.25517728299854        0.87113348766506
C           -3.64426278386041        3.52636279506543        1.58598920643016
C           -2.77409543655049        2.57704949355775        1.09808391132150
C           -3.07771656487633        1.97329227442105       -0.11297582816243
C           -0.06716408858008        1.26138216343507       -0.20536111575236
C           -0.15820215566850        2.64824109678204       -0.43238900554145
N           -0.20734190833044        3.76791574614074       -0.68358578524277
C            1.16967035290360        0.68701181324489        0.14740411157710
N            2.26275677390736        1.50531547883401        0.43217607181764
C            2.28814165950335        2.54358718507520        1.34648800654207
C            1.30888937322703        2.96239530714156        2.23359462974505
C            1.60584553088720        4.01688091099781        3.07553736733012
C            2.85465620901695        4.63340337639482        3.05255622727462
C            3.84572432143422        4.19808107001702        2.19549203804196
C            3.56830916736956        3.14153659221176        1.33734174341024
C            4.34709867360313        2.42932047660635        0.36184073847802
C            5.65300137031444        2.57854419550583       -0.09287904530029
C            6.10711239655590        1.72197462861763       -1.08332437562219
O            7.36466799144378        1.74724033510640       -1.61989202037422
C            8.27906360504183        2.70947738874027       -1.14314814597221
C            5.25519182634101        0.74467761777770       -1.62146644927352
C            3.95922818916675        0.59188909807348       -1.18011587174619
C            3.51071689218813        1.42710553181979       -0.16785540396699
C            1.29817758152171       -0.69221153255754        0.21514740818524
H           -3.17095387519856       -8.62539261434003        3.02647530366213
H           -1.42857435458488       -8.26078531879861        2.95003232262366
H           -2.37324067762511       -8.45123670637498        1.44265208727441
H           -3.29793257003930       -4.29021928889338        2.59227451482433
H           -2.05590368892780       -2.42592889273781        1.56521405519475
H           -0.44146228131352       -7.12073920131168        1.12733627486957
H            1.82169299447753       -7.05436204846607       -0.31368694581015
H            3.79946131368445       -6.39161240387271       -1.64105897211544
H            4.16875623566387       -4.04286788871734       -2.24011764233748
H            2.61005043837535       -2.28928902305251       -1.51883902683957
H           -1.87188674459980       -1.58510690375372       -0.58857593609116
H           -1.96901680102496       -0.85333543116642       -2.92697392597274
H           -3.59580136336900       -1.08522947583702       -4.75907100925596
H           -5.64100726304891        0.26324764565820       -4.81483315139985
H           -6.11184947221910        1.91316337384179       -3.03579164979889
H           -6.04901095836598        3.47432404393360       -0.83053905498263
H           -6.56283289759681        5.67254523097859       -0.12028900830415
H           -7.17994585278964        6.03005855704389        1.51299144966135
H           -7.47919434745706        4.43117033320261        0.78517826289873
H           -3.44212909876033        4.02769944796156        2.51931705126745
H           -1.88787898647598        2.31736520660517        1.65572312186086
H            0.34342971477489        2.48144019353040        2.27480426853638
H            0.85409220024033        4.36643351476573        3.76752600184951
H            3.04860698275464        5.45659614395987        3.72380616670885
H            4.81945780292341        4.66389974395976        2.19263519497406
H            6.27543682262286        3.35285225787951        0.32396952489108
H            8.47424092752628        2.57932806366454       -0.07414199455236
H            7.92168153513142        3.72692000665394       -1.32997870380379
H            9.19790137722198        2.54035419116667       -1.70229401164714
H            5.64731396680917        0.11471606449276       -2.40431173669640
H            3.31358843122259       -0.14725841467812       -1.62699885770909
H            2.24050414502442       -1.11928560577544        0.51978923820967
