85
 energy: -138.771625277229 gnorm: 0.000086927008 xtb: 6.7.1 (edcfbbe)
C           -7.82424915460053        3.97783436184601       -0.36044628024258
O           -7.06608882248104        2.88979017932203       -0.84355771328875
C           -5.76964725755846        2.76660521235588       -0.45249071833389
C           -5.09439332680810        1.65001887934869       -0.98782470641401
C           -3.78256941763816        1.38383739878211       -0.67415508193277
C           -3.12165287198142        2.24546309072411        0.19613189287719
C           -3.78183290438636        3.39298637122709        0.71139088684015
C           -5.11001862860896        3.64919419236793        0.39357977700345
C           -2.81806812132960        4.09088742231229        1.50854282211200
C           -2.86069382322999        5.25785931370824        2.26136578007165
C           -1.72949895237569        5.64044629389845        2.95817650550055
C           -0.56932150335822        4.86777475586654        2.92513243783300
C           -0.50026596226442        3.70480659961244        2.17723288220798
C           -1.62098635014870        3.32895376747705        1.45138055560473
N           -1.82174860578702        2.22054134603839        0.64648528056819
C           -0.87382593713312        1.24038889094711        0.36137873807894
C           -1.19634307497845       -0.12931084278152        0.48335174431488
C           -0.25691244031315       -1.09625395714312        0.25157902018558
N           -0.59033860122097       -2.45236944887316        0.38701233139041
C            0.05732396098924       -3.36781463846374        1.19021541462163
C            1.11604289305892       -3.17765930471102        2.06569332955470
C            1.57173157900317       -4.27221171951896        2.77673582274846
C            0.98060902817485       -5.52525366128079        2.63519375530192
C           -0.09178722581863       -5.71623527392492        1.78236361564908
C           -0.56378097302355       -4.63301032274104        1.05536569465727
C           -1.63845196972061       -4.45835975985663        0.11675231028419
C           -2.58196161913441       -5.32678525318446       -0.41428063930447
C           -3.49142957880667       -4.82815336873551       -1.33987356171280
O           -4.47083953492893       -5.56102555195692       -1.93602910072988
C           -4.59349937109203       -6.92836965326350       -1.60744153145717
C           -3.43834333734929       -3.47857258651210       -1.73611388878750
C           -2.50833077233201       -2.61021190532467       -1.21476477526104
C           -1.61262967483635       -3.09725638760404       -0.26892759398392
C            1.08274240404003       -0.75280980793388       -0.15874088957753
C            1.97409179245840       -1.71472686033906       -0.57494438431713
N            2.72497391624979       -2.52956881744026       -0.93416238249911
C            1.39051398341358        0.65208180640319       -0.26182964763672
N            2.68059818469099        1.02585172035889       -0.67129549509637
C            2.98358175789308        1.78343137906794       -1.78437449147517
C            2.13200319380167        2.36593770326657       -2.71182187227009
C            2.70156699214334        3.07129488761722       -3.75668895288502
C            4.08350893352387        3.19376755501183       -3.88080323641108
C            4.93741126177268        2.60094964170877       -2.96791197254901
C            4.39005633782161        1.88584362720883       -1.91200312744410
C            4.95128441699223        1.14288461654185       -0.81656374410034
C            6.25492581155005        0.89146457616317       -0.41383946539463
C            6.45578222142361        0.13113198125030        0.73248971986612
O            7.67445711675395       -0.19478801149195        1.24142443976199
C            8.83438660288101        0.24394811116586        0.56640753688886
C            5.35814755642605       -0.35063476918297        1.47046692030189
C            4.06329549149984       -0.10647196511082        1.08059041264738
C            3.85650414449897        0.62858149428092       -0.08235573972558
C            0.44046566598008        1.60282624239866       -0.01148870779234
H           -8.81531407332342        3.85842100980755       -0.79502703099044
H           -7.39867438566699        4.93333321534034       -0.68134508471754
H           -7.89974046021749        3.95696239887658        0.73080148227411
H           -5.64290513941738        1.00885600193375       -1.65909024056007
H           -3.28009761623796        0.53470032517199       -1.10771405153666
H           -5.59635204266790        4.52105411419427        0.79899224592460
H           -3.76214450940472        5.85028388001260        2.30332575759619
H           -1.74428955810445        6.54457114450283        3.54868613991905
H            0.29134635332731        5.17887447781674        3.49823540403411
H            0.39580104121006        3.10331735190612        2.17757667072674
H           -2.18246208249489       -0.41466635068668        0.81767045305489
H            1.57241738498605       -2.20770863006871        2.18754045026946
H            2.40065651426850       -4.15110128242902        3.45805141004173
H            1.36464920851547       -6.35697172132074        3.20675913537675
H           -0.55350429042065       -6.68702131759006        1.68438777650886
H           -2.58720336995517       -6.36014442709612       -0.10940985255410
H           -3.69044321959851       -7.48477097287866       -1.87557993087194
H           -5.43310061323742       -7.29461761360057       -2.19583640425599
H           -4.80694237135533       -7.06441169232959       -0.54312337968136
H           -4.15276615570889       -3.14589875631212       -2.47229386537744
H           -2.46497779526574       -1.58419272048248       -1.54397127078028
H            1.06076325392130        2.26270663487874       -2.62719822121857
H            2.06077219639283        3.53408799192782       -4.49246943635024
H            4.49152369553844        3.75470549062660       -4.70833792942925
H            6.00790085420583        2.68808369105950       -3.07519287465796
H            7.07725034751973        1.28456795305719       -0.98849618415342
H            8.88423155270997        1.33629553028191        0.53032178028210
H            8.88118536245925       -0.16081115014368       -0.44883563286015
H            9.67097209257517       -0.13865506379273        1.14858742752373
H            5.56779259067334       -0.92273280192774        2.36037463366797
H            3.23438773650506       -0.47752207166153        1.66210563364164
H            0.69063591655429        2.64711324576185       -0.12159597482622
