  85
       -138.80480633
 C         -2.3795391210       -8.0958605349        2.4002876496
 O         -2.7399630220       -6.7382387473        2.4888093766
 C         -1.9477564236       -5.8142926651        1.8746342673
 C         -2.3750294544       -4.4839798863        2.0107317489
 C         -1.6882402547       -3.4363648765        1.4383447036
 C         -0.5492628490       -3.7270713099        0.6996284597
 C         -0.0906708340       -5.0545263692        0.5877564997
 C         -0.7908845857       -6.1054073673        1.1693530149
 C          1.1314130118       -5.0053273818       -0.1656242967
 C          2.0166986553       -5.9792119570       -0.6082972643
 C          3.1125149963       -5.5901169584       -1.3524227761
 C          3.3188015201       -4.2507348210       -1.6724793527
 C          2.4498643477       -3.2652221583       -1.2443128590
 C          1.3641386111       -3.6443964100       -0.4690753444
 N          0.3393508561       -2.8776864393        0.0551955820
 C          0.2097517159       -1.4965342492       -0.0423897673
 C         -1.0265384209       -0.9382546191       -0.3618500539
 C         -1.1827192752        0.4380114874       -0.4373552184
 N         -2.4195495642        0.9749398816       -0.7791849069
 C         -3.1834828602        0.6038298463       -1.8692514233
 C         -2.9171640251       -0.3295364267       -2.8600670238
 C         -3.8507167971       -0.4867030796       -3.8670828424
 C         -5.0188764726        0.2706015447       -3.8996474938
 C         -5.2762013658        1.2199281702       -2.9306834686
 C         -4.3539249212        1.3954940178       -1.9077220442
 C         -4.2900530336        2.2775851272       -0.7756030087
 C         -5.1594313227        3.2473412758       -0.2891751164
 C         -4.8153596802        3.9136523998        0.8760497594
 O         -5.5644470026        4.8901244581        1.4645370098
 C         -6.7538398005        5.2943423323        0.8304635380
 C         -3.6292499440        3.5886200272        1.5529297258
 C         -2.7626260482        2.6299566019        1.0790016894
 C         -3.0838730862        1.9899451586       -0.1086961244
 C         -0.0800049341        1.2798173343       -0.1995048966
 C         -0.1739412745        2.6656660441       -0.4407774632
 N         -0.2226228051        3.7808682031       -0.7083742185
 C          1.1606015409        0.7131696230        0.1480265025
 N          2.2512308203        1.5333591126        0.4242538241
 C          2.2808047439        2.5755623660        1.3309212359
 C          1.2962535847        3.0175596723        2.2007214224
 C          1.6009628230        4.0705975925        3.0409452767
 C          2.8604890843        4.6648975734        3.0324856353
 C          3.8554993548        4.2070997910        2.1924350812
 C          3.5715123561        3.1507093796        1.3370033365
 C          4.3514330020        2.4185348199        0.3782587519
 C          5.6654878496        2.5403704328       -0.0594589460
 C          6.1167871763        1.6703266803       -1.0394425228
 O          7.3788787562        1.6680373720       -1.5582886329
 C          8.3026542436        2.6135990739       -1.0758126866
 C          5.2526529095        0.7075969181       -1.5845923503
 C          3.9489332860        0.5811586964       -1.1596264732
 C          3.5037121988        1.4284740138       -0.1561268717
 C          1.2982695213       -0.6654456360        0.2157056935
 H         -3.1499426743       -8.6400124419        2.9437326928
 H         -1.4066510825       -8.2844798922        2.8658787477
 H         -2.3588303922       -8.4388375076        1.3606630259
 H         -3.2668357365       -4.3029250439        2.5889285065
 H         -2.0276806076       -2.4227511368        1.5827328679
 H         -0.4190542065       -7.1117056663        1.0673742844
 H          1.8445859374       -7.0193922448       -0.3774645993
 H          3.8146949055       -6.3310829754       -1.7030676157
 H          4.1733145275       -3.9744143431       -2.2718247413
 H          2.6109240922       -2.2360947122       -1.5212040177
 H         -1.8711758178       -1.5774143984       -0.5593841586
 H         -2.0061390582       -0.9086360604       -2.8579848104
 H         -3.6670564069       -1.2102957543       -4.6472278815
 H         -5.7246396056        0.1171421470       -4.7018806248
 H         -6.1725967880        1.8199254622       -2.9670806435
 H         -6.0741189001        3.4544213083       -0.8197227408
 H         -6.5606096438        5.6810918221       -0.1753668271
 H         -7.1613502276        6.0906935351        1.4507947384
 H         -7.4774656486        4.4744206821        0.7728080294
 H         -3.4146103086        4.1183954056        2.4669266776
 H         -1.8668620725        2.3905786064        1.6283630515
 H          0.3224572864        2.5555852999        2.2309615477
 H          0.8468220648        4.4379662970        3.7205932862
 H          3.0594802879        5.4880321637        3.7018167926
 H          4.8373748720        4.6551873003        2.2007630584
 H          6.2959903244        3.3058648062        0.3617371809
 H          8.4840605946        2.4868726463       -0.0034353121
 H          7.9676681385        3.6377365279       -1.2699424550
 H          9.2256276097        2.4270931520       -1.6218590258
 H          5.6426491768        0.0680480257       -2.3600384313
 H          3.2936200611       -0.1451576553       -1.6131368317
 H          2.2445662021       -1.0880957583        0.5117208684
