  96
       -152.86442040
 C          5.2982369161       -5.0379961816       -1.1376822385
 C          5.8836031438       -4.5893003919        0.0356395613
 C          5.6469742351       -3.3077524597        0.4916413661
 C          4.8189345264       -2.4464701531       -0.2301804180
 N          4.5545435345       -1.1566812471        0.2377961524
 C          5.5535254982       -0.4091614261        0.8651804936
 C          5.2377171035        0.4551296464        1.9159425061
 C          6.2223559087        1.2174762314        2.5103890181
 C          7.5365884868        1.1283265124        2.0797931648
 C          7.8584015878        0.2639342931        1.0452197435
 C          6.8797674447       -0.4968854695        0.4375679330
 C          3.2830403297       -0.6051309020        0.0554547047
 C          3.1382171943        0.7604556406       -0.2014462420
 C          1.8683985410        1.3110411420       -0.3374885789
 C          0.7158052743        0.4927259969       -0.3240666011
 C          0.8896814600       -0.8911705668       -0.1027713677
 C          2.1531903659       -1.4226578619        0.1317558283
 N         -0.2195884349       -1.7216024418       -0.1219988845
 C          0.0346577161       -3.1221330717       -0.1071283791
 C         -0.1853117137       -3.8726027379        1.0421083071
 C          0.1080885220       -5.2241760529        1.0472073117
 C          0.6270012617       -5.8298581632       -0.0855698324
 C          0.8464205921       -5.0818026471       -1.2306836467
 C          0.5500878003       -3.7315409552       -1.2451946371
 C         -1.5224399741       -1.2680484782       -0.1172706413
 C         -2.5639661244       -2.1972183888       -0.0816859155
 C         -3.8846819870       -1.7693236828        0.0206810218
 C         -4.2051038596       -0.4092960842        0.1572206117
 C         -3.1459936178        0.5002513764        0.0869808860
 C         -1.8054907565        0.1246650578       -0.1781669153
 B         -0.6582942592        1.0872424307       -0.5263541639
 C         -0.6586964405        2.5417980018       -1.0274081292
 C         -1.7496267963        3.1952926555       -1.6174327884
 C         -1.7223863719        4.5370239471       -1.9351807188
 C         -0.5817496676        5.2848955881       -1.6700416709
 C          0.5469736321        4.6633810973       -1.1711089925
 C          0.5439995919        3.2900031282       -0.9038665262
 N          1.7235653377        2.6753673551       -0.5155620691
 C          2.8949437200        3.4618135296       -0.3328373698
 C          3.5844592191        3.9807271082       -1.4232330748
 C          4.7420626168        4.7095689356       -1.2207828346
 C          5.2201967086        4.9182756063        0.0627810476
 C          4.5337616114        4.4001435746        1.1488826321
 C          3.3735878963        3.6741747378        0.9552022135
 O         -3.3691634862        1.8261056578        0.2669596598
 C         -4.5987971667        2.3326527190        0.5343362562
 C         -4.6073708753        3.7168900499        0.7237552192
 C         -5.7850366442        4.3672286304        1.0314715444
 C         -6.9556899381        3.6334100976        1.1646429706
 C         -6.9432608272        2.2661050087        0.9682017188
 C         -5.7806149171        1.5626190482        0.6272306385
 B         -5.6464498741        0.0418916236        0.3650077329
 C         -6.6694922804       -1.1081452913        0.2601781024
 C         -8.0701174327       -0.9970237963        0.2676756679
 C         -8.9042031224       -2.0892287404        0.1803251349
 C         -8.3716787087       -3.3699060840        0.0736820493
 C         -7.0023902556       -3.5306883666        0.0363015059
 C         -6.1632821594       -2.4206338883        0.1155910327
 O         -4.8330455904       -2.7241541057        0.0359663596
 C          4.2409310507       -2.9009388307       -1.4174900221
 C          4.4777384236       -4.1862448536       -1.8601941398
 H          5.4824729989       -6.0423093296       -1.4874122856
 H          6.5231021371       -5.2467868067        0.6058824984
 H          6.0931039886       -2.9650441618        1.4137506771
 H          4.2167346915        0.5158257460        2.2621832029
 H          5.9640337737        1.8794722815        3.3237055165
 H          8.3041851565        1.7253943698        2.5478656122
 H          8.8797764079        0.1886819216        0.7017067810
 H          7.1310232442       -1.1579743570       -0.3788024837
 H          4.0236272923        1.3709792824       -0.2785208857
 H          2.2827135074       -2.4679229316        0.3644896387
 H         -0.5825694191       -3.3898184070        1.9225900623
 H         -0.0629045305       -5.8051975863        1.9411126486
 H          0.8605733647       -6.8836184317       -0.0755070055
 H          1.2485839497       -5.5521760155       -2.1150937112
 H          0.7186143502       -3.1376140899       -2.1310681220
 H         -2.3755300932       -3.2573758270       -0.1298457422
 H         -2.6418648502        2.6255191429       -1.8193218209
 H         -2.5915386197        5.0111088500       -2.3677349501
 H         -0.5619431049        6.3454781667       -1.8722466840
 H          1.4364905661        5.2500057600       -0.9985769562
 H          3.2091935198        3.8040910524       -2.4201514023
 H          5.2767678657        5.1100246138       -2.0687960018
 H          6.1270597177        5.4831007542        0.2159901566
 H          4.9031135103        4.5635061915        2.1498555537
 H          2.8316433472        3.2623589842        1.7938716698
 H         -3.6744564004        4.2507671024        0.6243693011
 H         -5.7900070476        5.4375385856        1.1751574688
 H         -7.8789006569        4.1332232341        1.4207039594
 H         -7.8637107484        1.7185869124        1.0925923669
 H         -8.5091390652       -0.0144652590        0.3340480942
 H         -9.9762309458       -1.9537341731        0.1958943652
 H         -9.0209927958       -4.2301036911        0.0103586488
 H         -6.5541304560       -4.5077622292       -0.0647632933
 H          3.6127776818       -2.2335615401       -1.9886166870
 H          4.0272044964       -4.5225526853       -2.7822391624
