  96
       -152.86442040
 C          5.2982369161       -5.0379961816       -1.1376822385
 C          5.8836031438       -4.5893003919        0.0356395613
 C          5.6469742351       -3.3077524597        0.4916413661
 C          4.8189345264       -2.4464701531       -0.2301804180
 N          4.5545435345       -1.1566812471        0.2377961524
 C          5.5535254982       -0.4091614261        0.8651804936
 C          5.2377171035        0.4551296464        1.9159425061
 C          6.2223559087        1.2174762314        2.5103890181
 C          7.5365884868        1.1283265124        2.0797931648
 C          7.8584015878        0.2639342931        1.0452197435
 C          6.8797674447       -0.4968854695        0.4375679330
 C          3.2830403297       -0.6051309020        0.0554547047
 C          3.1382171943        0.7604556406       -0.2014462420
 C          1.8683985410        1.3110411420       -0.3374885789
 C          0.7158052743        0.4927259969       -0.3240666011
 C          0.8896814600       -0.8911705668       -0.1027713677
 C          2.1531903659       -1.4226578619        0.1317558283
 N         -0.2195884349       -1.7216024418       -0.1219988845
 C          0.0346577161       -3.1221330717       -0.1071283791
 C         -0.1853117137       -3.8726027379        1.0421083071
 C          0.1080885220       -5.2241760529        1.0472073117
 C          0.6270012617       -5.8298581632       -0.0855698324
 C          0.8464205921       -5.0818026471       -1.2306836467
 C          0.5500878003       -3.7315409552       -1.2451946371
 C         -1.5224399741       -1.2680484782       -0.1172706413
 C         -2.5639661244       -2.1972183888       -0.0816859155
 C         -3.8846819870       -1.7693236828        0.0206810218
 C         -4.2051038596       -0.4092960842        0.1572206117
 C         -3.1459936178        0.5002513764        0.0869808860
 C         -1.8054907565        0.1246650578       -0.1781669153
 B         -0.6582942592        1.0872424307       -0.5263541639
 C         -0.6586964405        2.5417980018       -1.0274081292
 C         -1.7496267963        3.1952926555       -1.6174327884
 C         -1.7223863719        4.5370239471       -1.9351807188
 C         -0.5817496676        5.2848955881       -1.6700416709
 C          0.5469736321        4.6633810973       -1.1711089925
 C          0.5439995919        3.2900031282       -0.9038665262
 N          1.7235653377        2.6753673551       -0.5155620691
 C          2.8949437200        3.4618135296       -0.3328373698
 C          3.5844592191        3.9807271082       -1.4232330748
 C          4.7420626168        4.7095689356       -1.2207828346
 C          5.2201967086        4.9182756063        0.0627810476
 C          4.5337616114        4.4001435746        1.1488826321
 C          3.3735878963        3.6741747378        0.9552022135
 O         -3.3691634862        1.8261056578        0.2669596598
 C         -4.5987971667        2.3326527190        0.5343362562
 C         -4.6073708753        3.7168900499        0.7237552192
 C         -5.7850366442        4.3672286304        1.0314715444
 C         -6.9556899381        3.6334100976        1.1646429706
 C         -6.9432608272        2.2661050087        0.9682017188
 C         -5.7806149171        1.5626190482        0.6272306385
 B         -5.6464498741        0.0418916236        0.3650077329
 C         -6.6694922804       -1.1081452913        0.2601781024
 C         -8.0701174327       -0.9970237963        0.2676756679
 C         -8.9042031224       -2.0892287404        0.1803251349
 C         -8.3716787087       -3.3699060840        0.0736820493
 C         -7.0023902556       -3.5306883666        0.0363015059
 C         -6.1632821594       -2.4206338883        0.1155910327
 O         -4.8330455904       -2.7241541057        0.0359663596
 C          4.2409310507       -2.9009388307       -1.4174900221
 C          4.4777384236       -4.1862448536       -1.8601941398
 H          5.4824729989       -6.0423093296       -1.4874122856
 H          6.5231021371       -5.2467868067        0.6058824984
 H          6.0931039886       -2.9650441618        1.4137506771
 H          4.2167346915        0.5158257460        2.2621832029
 H          5.9640337737        1.8794722815        3.3237055165
 H          8.3041851565        1.7253943698        2.5478656122
 H          8.8797764079        0.1886819216        0.7017067810
 H          7.1310232442       -1.1579743570       -0.3788024837
 H          4.0236272923        1.3709792824       -0.2785208857
 H          2.2827135074       -2.4679229316        0.3644896387
 H         -0.5825694191       -3.3898184070        1.9225900623
 H         -0.0629045305       -5.8051975863        1.9411126486
 H          0.8605733647       -6.8836184317       -0.0755070055
 H          1.2485839497       -5.5521760155       -2.1150937112
 H          0.7186143502       -3.1376140899       -2.1310681220
 H         -2.3755300932       -3.2573758270       -0.1298457422
 H         -2.6418648502        2.6255191429       -1.8193218209
 H         -2.5915386197        5.0111088500       -2.3677349501
 H         -0.5619431049        6.3454781667       -1.8722466840
 H          1.4364905661        5.2500057600       -0.9985769562
 H          3.2091935198        3.8040910524       -2.4201514023
 H          5.2767678657        5.1100246138       -2.0687960018
 H          6.1270597177        5.4831007542        0.2159901566
 H          4.9031135103        4.5635061915        2.1498555537
 H          2.8316433472        3.2623589842        1.7938716698
 H         -3.6744564004        4.2507671024        0.6243693011
 H         -5.7900070476        5.4375385856        1.1751574688
 H         -7.8789006569        4.1332232341        1.4207039594
 H         -7.8637107484        1.7185869124        1.0925923669
 H         -8.5091390652       -0.0144652590        0.3340480942
 H         -9.9762309458       -1.9537341731        0.1958943652
 H         -9.0209927958       -4.2301036911        0.0103586488
 H         -6.5541304560       -4.5077622292       -0.0647632933
 H          3.6127776818       -2.2335615401       -1.9886166870
 H          4.0272044964       -4.5225526853       -2.7822391624
  96
       -152.86425587
 C          5.3179278225       -5.0309773711        1.1650458432
 C          4.5093015744       -4.1704211454        1.8905029523
 C          4.2652874814       -2.8904202512        1.4366853400
 C          4.8231915871       -2.4502184308        0.2342832876
 N          4.5485459727       -1.1678902267       -0.2466859189
 C          5.5292537925       -0.4334955334       -0.9175490632
 C          5.1835201208        0.4037380900       -1.9807932512
 C          6.1495908599        1.1541812749       -2.6189753279
 C          7.4747282780        1.0796661927       -2.2201037175
 C          7.8259921872        0.2419949893       -1.1732442579
 C          6.8660449071       -0.5067148570       -0.5221610708
 C          3.2805960065       -0.6133442367       -0.0495642801
 C          3.1398192201        0.7582293241        0.1788282022
 C          1.8725985056        1.3116948889        0.3254029827
 C          0.7199291700        0.4942001075        0.3491029234
 C          0.8898412788       -0.8936098554        0.1519162725
 C          2.1492066875       -1.4318418846       -0.0876740031
 N         -0.2207203844       -1.7205706162        0.1971296325
 C          0.0344659809       -3.1211609344        0.2248078242
 C          0.5189069617       -3.6973352918        1.3929610702
 C          0.8177059525       -5.0469562673        1.4238008094
 C          0.6331186462       -5.8259556941        0.2934263361
 C          0.1465524601       -5.2527318748       -0.8701954288
 C         -0.1504358063       -3.9024252751       -0.9098827446
 C         -1.5223003458       -1.2647078238        0.1804730063
 C         -2.5632750091       -2.1933375546        0.1254539867
 C         -3.8806659863       -1.7651986769       -0.0076472958
 C         -4.2010760598       -0.4031614530       -0.1219976255
 C         -3.1435047424        0.5065608055       -0.0224679081
 C         -1.8036305835        0.1290587989        0.2386868696
 B         -0.6498503627        1.0913667180        0.5687023178
 C         -0.6365886031        2.5506450343        1.0554545074
 C         -1.7094178389        3.2086733038        1.6725871802
 C         -1.6757240110        4.5549123656        1.9706525155
 C         -0.5480200163        5.3025874447        1.6540697265
 C          0.5661710881        4.6772785976        1.1277271601
 C          0.5604506662        3.2993945057        0.8846461355
 N          1.7297211965        2.6800984795        0.4740107019
 C          2.8896421579        3.4634354784        0.2212840017
 C          3.3200968124        3.6265812969       -1.0910193234
 C          4.4676870855        4.3496217015       -1.3560279110
 C          5.1903460123        4.9138062789       -0.3170999538
 C          4.7610622203        4.7533111902        0.9903978117
 C          3.6158643117        4.0280251310        1.2642534583
 O         -3.3695630266        1.8350637999       -0.1857454276
 C         -4.6187376886        2.3561020542       -0.2887782861
 C         -4.6449509689        3.7519812217       -0.3397239957
 C         -5.8501925701        4.4211262493       -0.4046736415
 C         -7.0343224033        3.6971491233       -0.4091776236
 C         -7.0023192923        2.3165370315       -0.3756209807
 C         -5.8054397163        1.5898685747       -0.3353982757
 B         -5.6408916043        0.0494167024       -0.3342560432
 C         -6.6353116080       -1.1183938271       -0.5024698906
 C         -8.0002977057       -1.0282190923       -0.8221640003
 C         -8.8136646239       -2.1339884567       -0.9335942321
 C         -8.2949312320       -3.4079257041       -0.7269820373
 C         -6.9552924495       -3.5518238928       -0.4322349316
 C         -6.1349574292       -2.4295330219       -0.3306199868
 O         -4.8261973909       -2.7215109944       -0.0660533489
 C          5.6395746325       -3.3205000264       -0.4904911773
 C          5.8841251738       -4.5962143657       -0.0229335367
 H          5.5073242152       -6.0312546821        1.5232536400
 H          4.0732650376       -4.4960500271        2.8233352205
 H          3.6462106082       -2.2167624206        2.0102934076
 H          4.1537992228        0.4525846763       -2.3020444647
 H          5.8679261031        1.7951660636       -3.4412967629
 H          8.2279917987        1.6673856017       -2.7220349102
 H          8.8560802645        0.1784534187       -0.8547155987
 H          7.1405254152       -1.1474121443        0.3030664159
 H          4.0259810315        1.3709633182        0.2255385889
 H          2.2740544271       -2.4824892322       -0.2979111842
 H          0.6606657847       -3.0786181831        2.2665282877
 H          1.1943221269       -5.4925184014        2.3320309524
 H          0.8694166513       -6.8788697967        0.3186106852
 H          0.0033034502       -5.8581860511       -1.7526250097
 H         -0.5227070909       -3.4442722129       -1.8141567249
 H         -2.3751578069       -3.2537441680        0.1694374525
 H         -2.5925470613        2.6388442643        1.9117239875
 H         -2.5312229749        5.0326856717        2.4259367211
 H         -0.5262639546        6.3665431899        1.8374882560
 H          1.4467996596        5.2642458863        0.9154278274
 H          2.7494415172        3.1802919824       -1.8917840308
 H          4.7990502875        4.4746532170       -2.3757089061
 H          6.0871714334        5.4768047479       -0.5259719637
 H          5.3234734368        5.1905002550        1.8018872334
 H          3.2781438099        3.8907470279        2.2809563666
 H         -3.7046162897        4.2811463018       -0.3114602517
 H         -5.8677972511        5.5003412117       -0.4402080835
 H         -7.9826056017        4.2143238628       -0.4410929138
 H         -7.9367718443        1.7785876983       -0.3672170072
 H         -8.4238335350       -0.0535188729       -1.0042674930
 H         -9.8579913100       -2.0142594971       -1.1843891088
 H         -8.9295975385       -4.2777148977       -0.8061400214
 H         -6.5148836059       -4.5259993098       -0.2811137313
 H          6.0692794207       -2.9896582240       -1.4246584374
 H          6.5135056260       -5.2608602912       -0.5962408527
  96
       -152.86371364
 C          5.3284920318       -5.1186473424       -0.6619373955
 C          5.8268507124       -4.5858311092        0.5163950443
 C          5.5696609287       -3.2722371882        0.8546041084
 C          4.8063643735       -2.4657380444        0.0091279172
 N          4.5216166630       -1.1429980120        0.3634216782
 C          5.5061826314       -0.3518867791        0.9616946693
 C          5.1698204232        0.5901985281        1.9368253386
 C          6.1418938682        1.4012003104        2.4858972487
 C          7.4642792068        1.2819155189        2.0884387766
 C          7.8076058220        0.3348932679        1.1365274354
 C          6.8412979594       -0.4740158467        0.5727895847
 C          3.2629450724       -0.6056467700        0.0869734101
 C          3.1287202753        0.7539590352       -0.2110830618
 C          1.8662885703        1.3040170506       -0.4025782154
 C          0.7088073537        0.4926483638       -0.3879296413
 C          0.8781971839       -0.8927836847       -0.1731265377
 C          2.1311945699       -1.4230872081        0.1166816437
 N         -0.2296260788       -1.7253162570       -0.2419680890
 C          0.0250727075       -3.1227388529       -0.2785722050
 C         -0.3070413550       -3.9377533493        0.7986609466
 C         -0.0153733592       -5.2885619054        0.7558748454
 C          0.6135908431       -5.8330289433       -0.3522498793
 C          0.9450505017       -5.0217936014       -1.4255404529
 C          0.6518425760       -3.6717662589       -1.3926181037
 C         -1.5309798295       -1.2679661122       -0.2293780196
 C         -2.5815270534       -2.1861249518       -0.2856019906
 C         -3.8979357109       -1.7555447951       -0.1420357347
 C         -4.2015692773       -0.4135371407        0.1392019134
 C         -3.1361143899        0.4904197316        0.1345917806
 C         -1.8058826028        0.1279201457       -0.1917855678
 B         -0.6663133039        1.1011238169       -0.5334078963
 C         -0.6799733888        2.5700773115       -0.9897257430
 C         -1.7976812825        3.2544071296       -1.4877470782
 C         -1.7588669057        4.5934748950       -1.8160267834
 C         -0.5750602302        5.3061362792       -1.6725226579
 C          0.5715546397        4.6558072909       -1.2580674196
 C          0.5433657115        3.2918399940       -0.9489588252
 N          1.7302249491        2.6615553167       -0.6146067076
 C          2.9232408986        3.4398937338       -0.5475518655
 C          3.6889026965        3.6460885291       -1.6884822808
 C          4.8668622817        4.3659646394       -1.6038069343
 C          5.2829002182        4.8785819099       -0.3859530793
 C          4.5169995693        4.6752485869        0.7494916192
 C          3.3373340555        3.9561918669        0.6728886503
 O         -3.3406044247        1.7950602185        0.4448394922
 C         -4.5530024535        2.2744956422        0.8211402761
 C         -4.5388300836        3.6266829572        1.1713275531
 C         -5.6941437621        4.2413719970        1.6099834040
 C         -6.8647882313        3.5023423593        1.7108374148
 C         -6.8762701322        2.1684630487        1.3514548732
 C         -5.7377756550        1.5052006616        0.8752324712
 B         -5.6314912296        0.0251083966        0.4316456479
 C         -6.6705237039       -1.0941617417        0.2161323622
 C         -8.0689982224       -0.9681712783        0.2643873173
 C         -8.9193795102       -2.0312301873        0.0565137150
 C         -8.4064841047       -3.2937021726       -0.2230275614
 C         -7.0401782888       -3.4652483517       -0.3031465479
 C         -6.1843051646       -2.3848569479       -0.0964733589
 O         -4.8588951010       -2.6940482135       -0.2256420125
 C          4.3180935480       -3.0041413172       -1.1824821612
 C          4.5766045982       -4.3198603222       -1.5087240482
 H          5.5271849698       -6.1477015525       -0.9194245139
 H          6.4132639771       -5.2017376959        1.1821728158
 H          5.9487881477       -2.8604862690        1.7785158170
 H          4.1425537083        0.6763610232        2.2582101587
 H          5.8666767109        2.1275635008        3.2363454465
 H          8.2214588809        1.9190477928        2.5191354331
 H          8.8357777208        0.2330867550        0.8217943328
 H          7.1092096599       -1.1996101877       -0.1813054358
 H          4.0157665762        1.3645280140       -0.2592261283
 H          2.2448939572       -2.4651127203        0.3716039331
 H         -0.7879545918       -3.5043154682        1.6628697354
 H         -0.2733816489       -5.9175646718        1.5947290155
 H          0.8448760707       -6.8869488315       -0.3792226765
 H          1.4298748310       -5.4443137639       -2.2925714151
 H          0.9042322343       -3.0307955333       -2.2243144239
 H         -2.4034811059       -3.2385882890       -0.4354795601
 H         -2.7197607212        2.7109467865       -1.6120815729
 H         -2.6486508090        5.0908204756       -2.1742525718
 H         -0.5377853198        6.3602575768       -1.9038458433
 H          1.4956800466        5.2098260605       -1.1857766357
 H          3.3547565358        3.2375317475       -2.6306987725
 H          5.4624099569        4.5244878786       -2.4903387466
 H          6.2047555434        5.4365810982       -0.3227693499
 H          4.8396616601        5.0757184821        1.6986563229
 H          2.7333609988        3.7866486369        1.5517012655
 H         -3.6059173918        4.1640421900        1.0920707679
 H         -5.6810613816        5.2867196310        1.8807895504
 H         -7.7694100228        3.9722621947        2.0693662758
 H         -7.7951831592        1.6134910941        1.4538134977
 H         -8.4923621217        0.0039496407        0.4607819538
 H         -9.9890220808       -1.8865115625        0.1093977500
 H         -9.0687589355       -4.1306994172       -0.3854806130
 H         -6.6074575551       -4.4270928284       -0.5342766601
 H          3.7420112759       -2.3785096351       -1.8478855979
 H          4.1966883254       -4.7228621271       -2.4356977314
  96
       -152.86370292
 C          5.4280202363       -4.9990829374        1.2294197275
 C          4.6202840673       -4.1426939393        1.9609632546
 C          4.3374851290       -2.8761850181        1.4923284605
 C          4.8538769329       -2.4451959786        0.2676513206
 N          4.5378997609       -1.1799056700       -0.2269708822
 C          5.4589137296       -0.4534535644       -0.9871806285
 C          5.0260428426        0.3150905272       -2.0701115661
 C          5.9279655720        1.0642168474       -2.7971258441
 C          7.2738846246        1.0569057440       -2.4664505619
 C          7.7111443712        0.2870928305       -1.4000680208
 C          6.8158911081       -0.4612793741       -0.6617338366
 C          3.2740057495       -0.6317810246        0.0130005044
 C          3.1361704733        0.7443210961        0.2155671189
 C          1.8728029651        1.2952390396        0.3960530564
 C          0.7244006456        0.4746644313        0.4644780077
 C          0.8903844698       -0.9151637114        0.2783097799
 C          2.1459428666       -1.4555475374        0.0258876302
 N         -0.2231429871       -1.7380193872        0.3374349872
 C          0.0283591858       -3.1395254585        0.3430608120
 C          0.5044222131       -3.7376609366        1.5032957476
 C          0.8081979340       -5.0868673839        1.5086917242
 C          0.6362768409       -5.8432247629        0.3611868249
 C          0.1569250091       -5.2481411087       -0.7944314001
 C         -0.1440151426       -3.8983883411       -0.8088691612
 C         -1.5222048066       -1.2748302928        0.2924827052
 C         -2.5655337773       -2.1966950170        0.1893872835
 C         -3.8733338898       -1.7584845842        0.0037297182
 C         -4.1827175723       -0.3925727444       -0.0892346574
 C         -3.1278998604        0.5100238227        0.0784370999
 C         -1.7969982971        0.1194778978        0.3635902653
 B         -0.6406509415        1.0754428982        0.7003961880
 C         -0.6169229989        2.5372201950        1.1792642285
 C         -1.6750459487        3.1950984248        1.8206081899
 C         -1.6324363511        4.5409306677        2.1201306779
 C         -0.5115081416        5.2873855480        1.7781112249
 C          0.5874006032        4.6630894134        1.2191771523
 C          0.5742989259        3.2859756790        0.9732623415
 N          1.7288854476        2.6658280174        0.5230842482
 C          2.8598477849        3.4505124534        0.1655753683
 C          3.1892173484        3.5741256938       -1.1799543422
 C          4.3011505938        4.3041034986       -1.5546561018
 C          5.0894666688        4.9142199330       -0.5921922199
 C          4.7630543458        4.7902893261        0.7484940332
 C          3.6538765062        4.0582894117        1.1319585492
 O         -3.3452978970        1.8440297682       -0.0490295258
 C         -4.5894724589        2.3720023518       -0.1769418701
 C         -4.6147043602        3.7687002334       -0.1685591306
 C         -5.8175328622        4.4406621410       -0.2498789812
 C         -7.0003605500        3.7189762655       -0.3313171169
 C         -6.9687481278        2.3381979986       -0.3582214945
 C         -5.7731552919        1.6105687395       -0.3042838961
 B         -5.6083714607        0.0718806356       -0.3603773386
 C         -6.5894990914       -1.0843859589       -0.6413062727
 C         -7.9242690820       -0.9757278324       -1.0652111962
 C         -8.7274945101       -2.0734435315       -1.2811707378
 C         -8.2284110270       -3.3560234468       -1.0792112496
 C         -6.9164814466       -3.5167444032       -0.6847180038
 C         -6.1046303280       -2.4025583820       -0.4794388287
 O         -4.8189422189       -2.7079700222       -0.1298955511
 C          5.6697243644       -3.3115204611       -0.4630897024
 C          5.9536282060       -4.5732173760        0.0197781317
 H          5.6476495510       -5.9888566364        1.5993450130
 H          4.2148850047       -4.4613136236        2.9099782667
 H          3.7196273947       -2.2059239290        2.0711844724
 H          3.9791858503        0.3116637208       -2.3350283975
 H          5.5796620710        1.6509124048       -3.6342935972
 H          7.9768509276        1.6446208206       -3.0366848329
 H          8.7581168076        0.2773652026       -1.1350003718
 H          7.1561826015       -1.0495900900        0.1778698907
 H          4.0202864782        1.3620380248        0.2139803842
 H          2.2709244144       -2.5095306839       -0.1667037086
 H          0.6386066884       -3.1369124598        2.3904740084
 H          1.1804443840       -5.5492676727        2.4103516707
 H          0.8768477473       -6.8954644756        0.3664474363
 H          0.0237442278       -5.8353703196       -1.6906589561
 H         -0.5082746767       -3.4223813141       -1.7071692582
 H         -2.3845485809       -3.2587476957        0.2223085942
 H         -2.5537047361        2.6253002710        2.0766960566
 H         -2.4757402084        5.0193456551        2.5970599860
 H         -0.4828494712        6.3504817949        1.9657295327
 H          1.4619373734        5.2506133829        0.9847514282
 H          2.5671926301        3.0935059540       -1.9203776349
 H          4.5521286852        4.3998780382       -2.6001531293
 H          5.9573251757        5.4844297418       -0.8864744383
 H          5.3780314278        5.2617927004        1.5004467618
 H          3.3982577564        3.9481813376        2.1755295591
 H         -3.6768946317        4.2959491566       -0.0818240025
 H         -5.8346738001        5.5204280405       -0.2382735377
 H         -7.9468496016        4.2383927814       -0.3762443423
 H         -7.9016533208        1.7994761009       -0.4087221791
 H         -8.3287310832        0.0075659363       -1.2459401517
 H         -9.7485311974       -1.9408688055       -1.6094072881
 H         -8.8561920068       -4.2196535251       -1.2388695675
 H         -6.4910108982       -4.4978387973       -0.5357996551
 H          6.0669511613       -2.9897129663       -1.4145955640
 H          6.5822271395       -5.2343196017       -0.5585094756
  96
       -152.86359967
 C          7.8522030371        0.5881917533       -1.6521692624
 C          6.6380059966        0.4940020906       -2.3138621335
 C          5.5501959198       -0.0925784780       -1.6999297115
 C          5.6583158379       -0.5896520130       -0.3994606889
 N          4.5516429866       -1.1562755240        0.2397570624
 C          4.7098577973       -2.2681673858        1.0707265507
 C          3.9295354776       -2.4130036091        2.2197952748
 C          4.0630462619       -3.5322678086        3.0158562088
 C          4.9793017158       -4.5202551890        2.6913153381
 C          5.7661455249       -4.3758488955        1.5595999506
 C          5.6345247653       -3.2642568169        0.7516725024
 C          3.2793362841       -0.6181169445        0.0323338362
 C          3.1244758381        0.7561221094       -0.1711983889
 C          1.8686587208        1.2788980572       -0.4630649198
 C          0.7140125780        0.4634843037       -0.4129305371
 C          0.8864764508       -0.9082131010       -0.1229046979
 C          2.1593908708       -1.4511644383        0.0211956667
 N         -0.2280476417       -1.7246354534       -0.0438584681
 C          0.0042324986       -3.1085414272        0.2135363627
 C          0.2581276316       -3.5365233782        1.5108689095
 C          0.5194030665       -4.8721391376        1.7558758004
 C          0.5237160625       -5.7816885815        0.7112681461
 C          0.2655157766       -5.3550084288       -0.5806438255
 C          0.0083090821       -4.0188844195       -0.8340915760
 C         -1.5272775495       -1.2628951765       -0.0245555567
 C         -2.5573018822       -2.1775852564        0.2021788894
 C         -3.8740236284       -1.7408004387        0.3091928820
 C         -4.1974418510       -0.3753493909        0.2663331196
 C         -3.1444488162        0.5182201163        0.0457766904
 C         -1.8114808300        0.1166227735       -0.2185860210
 B         -0.6619750987        1.0467864812       -0.6455208184
 C         -0.6560892555        2.4558373555       -1.2631049850
 C         -1.7420199779        3.0544620144       -1.9182980992
 C         -1.6921339170        4.3439145127       -2.4048896122
 C         -0.5229052757        5.0840023085       -2.2822109881
 C          0.5995167176        4.5054210556       -1.7205216014
 C          0.5574499787        3.1942145434       -1.2349163534
 N          1.7290008088        2.6200170971       -0.7676678912
 C          2.9054026390        3.4219732177       -0.7228894110
 C          3.8487579549        3.3379052502       -1.7407978216
 C          5.0051854758        4.0923723413       -1.6712254952
 C          5.2214238455        4.9356738659       -0.5934998225
 C          4.2775653996        5.0252496232        0.4161473465
 C          3.1206356643        4.2685232413        0.3566949645
 O         -3.3691430828        1.8569259216        0.0717179100
 C         -4.5950603178        2.3917079746        0.2978048959
 C         -4.6060955457        3.7888080244        0.3004987891
 C         -5.7805115074        4.4729341430        0.5406942193
 C         -6.9452075001        3.7616259978        0.7928969153
 C         -6.9298477283        2.3802065528        0.7835389941
 C         -5.7708207462        1.6387782055        0.5191830780
 B         -5.6338294430        0.0965544197        0.4660275433
 C         -6.6504545564       -1.0587081275        0.5771333543
 C         -8.0504845195       -0.9528486007        0.6353757903
 C         -8.8763856812       -2.0481609427        0.7560939071
 C         -8.3366793024       -3.3284291989        0.8215122117
 C         -6.9690079615       -3.4885578063        0.7410096067
 C         -6.1393489726       -2.3768158413        0.6082283084
 O         -4.8113987376       -2.6852175556        0.5084625145
 C          6.8846158580       -0.4956038976        0.2604408985
 C          7.9691336058        0.0853659412       -0.3659949425
 H          8.7012571839        1.0466860232       -2.1357100255
 H          6.5412340281        0.8713985897       -3.3214371573
 H          4.6085371011       -0.1783496863       -2.2216600615
 H          3.2248805542       -1.6375923171        2.4813614911
 H          3.4537364037       -3.6304214532        3.9022147555
 H          5.0813526288       -5.3942286194        3.3162119276
 H          6.4816593894       -5.1414237828        1.2978857829
 H          6.2383566158       -3.1613581022       -0.1380833146
 H          3.9942762393        1.3895957724       -0.1064649131
 H          2.3013424984       -2.5144730773        0.1321685653
 H          0.2516250321       -2.8166999697        2.3156491144
 H          0.7201186610       -5.2035182348        2.7634127791
 H          0.7277206234       -6.8239246548        0.9045425422
 H          0.2669564176       -6.0637727969       -1.3951075451
 H         -0.1911275457       -3.6732330427       -1.8373604791
 H         -2.3601444178       -3.2317103554        0.3113550747
 H         -2.6479745805        2.4838212441       -2.0376076565
 H         -2.5607141527        4.7800322052       -2.8770233527
 H         -0.4741022127        6.0981467992       -2.6498335165
 H          1.5190369348        5.0700311324       -1.6820002205
 H          3.6686696218        2.6776382524       -2.5760534775
 H          5.7391811775        4.0213133472       -2.4595312227
 H          6.1259712350        5.5222966801       -0.5403995367
 H          4.4439256134        5.6828401458        1.2561913564
 H          2.3790333167        4.3272640557        1.1393444595
 H         -3.6777851060        4.3065280980        0.1121149173
 H         -5.7872622136        5.5528644923        0.5395955801
 H         -7.8659838460        4.2893658468        0.9964023557
 H         -7.8457539682        1.8535760442        0.9979453582
 H         -8.4971317027        0.0263508075        0.5725726609
 H         -9.9477938366       -1.9147147348        0.8027599135
 H         -8.9791100675       -4.1900371606        0.9239661580
 H         -6.5155122366       -4.4680210675        0.7693396505
 H          6.9741118402       -0.8747656010        1.2679727933
 H          8.9109785294        0.1561130080        0.1579243609
  96
       -152.86346946
 C          5.0034544792       -5.0404069275       -1.6004001860
 C          5.7936684556       -4.6101531937       -0.5462487158
 C          5.6585901533       -3.3307089423       -0.0456162261
 C          4.7268231653       -2.4521993573       -0.6017683696
 N          4.5633590972       -1.1673241001       -0.0783172258
 C          5.6655323712       -0.4530077618        0.4007308730
 C          5.5504035883        0.3554163109        1.5337764133
 C          6.6319966080        1.0863477252        1.9808426827
 C          7.8478524559        1.0186554340        1.3189459323
 C          7.9726512980        0.2064052095        0.2029470863
 C          6.8939511145       -0.5214716742       -0.2583340422
 C          3.2876793194       -0.6024180245       -0.0048315380
 C          3.1245422712        0.7791023677       -0.1449352040
 C          1.8695673616        1.3521843267        0.0329662349
 C          0.7209168988        0.5460554619        0.2095466931
 C          0.8983945939       -0.8548170902        0.2490188596
 C          2.1734570810       -1.4116947828        0.2208780207
 N         -0.2099821364       -1.6714875328        0.3876205450
 C          0.0308239830       -3.0769542477        0.4270418735
 C          0.0431861026       -3.7487525308        1.6417218291
 C          0.3147572534       -5.1054821550        1.6723818166
 C          0.5794837997       -5.7897305803        0.4977940271
 C          0.5654817895       -5.1186322741       -0.7137285608
 C          0.2891615470       -3.7642781521       -0.7526854198
 C         -1.5144596425       -1.2286779912        0.3213704744
 C         -2.5414449925       -2.1737223680        0.3571713134
 C         -3.8682604392       -1.7752658898        0.2290140558
 C         -4.2083452184       -0.4370607525       -0.0240313629
 C         -3.1574060831        0.4843881329       -0.0767682761
 C         -1.8075204443        0.1579823112        0.2059151943
 B         -0.6521296801        1.1649831075        0.3494252923
 C         -0.6380512239        2.6811420314        0.6123555601
 C         -1.7023518343        3.4183726499        1.1516146581
 C         -1.6523204037        4.7887670429        1.2987856610
 C         -0.5040354794        5.4815047709        0.9361342702
 C          0.6031824975        4.7863911514        0.4876089449
 C          0.5630406907        3.3946572093        0.3527121955
 N          1.7252875196        2.7265981209        0.0033627502
 C          2.8959148639        3.4951071942       -0.2602359065
 C          3.1008833439        4.0257498271       -1.5268202479
 C          4.2526646417        4.7457996545       -1.7913980394
 C          5.2010556366        4.9319812024       -0.7995844222
 C          4.9951558164        4.4032855718        0.4643053485
 C          3.8438511516        3.6883602334        0.7381014426
 O         -3.4022436469        1.7790209021       -0.4038717706
 C         -4.6466878995        2.2454147777       -0.6763908729
 C         -4.6771276716        3.6019972759       -1.0092160632
 C         -5.8734219519        4.2111115704       -1.3300189023
 C         -7.0418422653        3.4620769916       -1.3312890553
 C         -7.0065998980        2.1218430116       -0.9977835744
 C         -5.8229958525        1.4622254159       -0.6416672235
 B         -5.6607114611       -0.0254869871       -0.2410693310
 C         -6.6652321949       -1.1754338912       -0.0184230225
 C         -8.0675988605       -1.0861938678       -0.0106276360
 C         -8.8829464752       -2.1786872907        0.1842608876
 C         -8.3293355305       -3.4381682649        0.3892491248
 C         -6.9571223686       -3.5754135216        0.4150338308
 C         -6.1374977290       -2.4641625653        0.2268828633
 O         -4.8015189825       -2.7411951490        0.3084483864
 C          3.9435451808       -2.8872056901       -1.6730682416
 C          4.0806346265       -4.1709861666       -2.1602744565
 H          5.1086990536       -6.0435049630       -1.9843669068
 H          6.5152717212       -5.2807141094       -0.1032647677
 H          6.2646706208       -3.0034905499        0.7865614707
 H          4.6077774425        0.3977567013        2.0591155922
 H          6.5288791019        1.7063821875        2.8594381887
 H          8.6924262095        1.5900735483        1.6725849165
 H          8.9164019181        0.1473177286       -0.3191028794
 H          6.9899021021       -1.1429831229       -1.1366482680
 H          3.9884237942        1.3813520789       -0.3753264107
 H          2.3216638215       -2.4689321882        0.3735209646
 H         -0.1612134887       -3.2033937337        2.5509788147
 H          0.3230983839       -5.6284279645        2.6169402543
 H          0.7965944750       -6.8467323701        0.5263498169
 H          0.7708453771       -5.6510283572       -1.6300992969
 H          0.2757609972       -3.2286417607       -1.6902456547
 H         -2.3353093707       -3.2249379636        0.4769820054
 H         -2.5921801815        2.8911494412        1.4528880490
 H         -2.5060523544        5.3243048117        1.6885077010
 H         -0.4580926024        6.5562121392        1.0309718081
 H          1.5097727163        5.3282066476        0.2633011871
 H          2.3560933178        3.8700857094       -2.2929923236
 H          4.4111814090        5.1581557756       -2.7765553797
 H          6.1011658049        5.4889070499       -1.0113155480
 H          5.7334794124        4.5467227612        1.2385887050
 H          3.6716866195        3.2717614535        1.7192522741
 H         -3.7461391886        4.1484407187       -1.0078789918
 H         -5.8950073939        5.2607550331       -1.5831302968
 H         -7.9811847405        3.9284028306       -1.5919597294
 H         -7.9270476004        1.5610044895       -1.0214508852
 H         -8.5242206976       -0.1199514258       -0.1526506069
 H         -9.9571039652       -2.0597683865        0.1766362172
 H         -8.9639264005       -4.2991343468        0.5360479337
 H         -6.4914359862       -4.5339414921        0.5890670087
 H          3.2334206643       -2.2067577224       -2.1191227952
 H          3.4683301833       -4.4934523614       -2.9894975891
