77
 energy: -111.589484487914 gnorm: 0.000055441238 xtb: 6.7.1 (edcfbbe)
C           -8.43288741274350       -1.30878541443068        0.63014954236195
C           -7.39685106742747       -2.43549222488630        0.58855589374923
C           -7.47033523874620       -3.20059915006398        1.91803866894877
C           -7.75888652495710       -3.37328902664677       -0.57231437525090
C           -5.98044696285403       -1.92172083839924        0.38827499089419
C           -4.92722222778466       -2.84511566712213        0.32634718289979
C           -3.61212003304340       -2.47107735480649        0.14220614134776
C           -3.33400861058846       -1.11758466446265        0.00262580673847
C           -4.37408942310325       -0.16395903086083        0.09058206926267
C           -5.68568105615717       -0.56771636429746        0.27676029867845
C           -3.74957202820513        1.12745399243468       -0.03620855789359
C           -4.24211475206959        2.42202708763728       -0.03844057144985
C           -3.36963659062257        3.49086722214971       -0.20636159462597
C           -3.83958204548323        4.93650622846856       -0.20970443016911
C           -3.12612628776390        5.69811743312243        0.91691158332392
C           -3.49902117302599        5.57288256112206       -1.56512954211022
C           -5.34910193090596        5.06654395715260        0.01125453083198
C           -2.00616532925323        3.22136482371739       -0.38978243259075
C           -1.48893768393793        1.94232894560902       -0.39185405191059
C           -2.36620431351037        0.88455923326187       -0.19455618782092
N           -2.12996939122394       -0.47254760251011       -0.17128375107277
C           -0.88212715961118       -1.08820067622744       -0.29926704936531
C           -0.70052928375582       -2.16473872031571       -1.17952891427389
C            0.52537571248902       -2.75969672878494       -1.30103697907999
C            1.64408086158813       -2.28095499219421       -0.57808905264841
C            2.90630747669330       -2.95692403333437       -0.75293147774526
O            2.92707015574561       -4.12592108105038       -1.24545942574073
C            4.15773872938249       -2.32565166910173       -0.35179307046084
C            5.25301268381174       -3.15374517896326       -0.02771835684794
C            6.46666705349378       -2.62265585688973        0.33602375756108
C            6.61125826063765       -1.24081993599098        0.36020743871464
S            8.06334707572966       -0.36100480108321        0.78409981403182
C            7.26301406618671        1.16393948424401        0.46982175493475
C            7.83354685598396        2.41913020015154        0.60054000360196
C            7.05890921673597        3.52764193932873        0.31434012180024
C            5.73754092044658        3.38337674047396       -0.09464256797239
C            5.17087033278779        2.13024903278048       -0.22470394431979
C            5.93022821978175        0.99991358159431        0.05559541064891
C            5.55055453979689       -0.39082956510004       -0.00585488045181
C            4.33335974311485       -0.93770464525223       -0.37503779234977
C            1.43033026310378       -1.24457761512904        0.35491663981428
C            0.19957289436487       -0.65186912637837        0.47716119828509
H           -8.43595774845947       -0.74456259999403       -0.29964350797660
H           -8.24330297636982       -0.63192015805203        1.46005263846162
H           -9.42462594426955       -1.73497551705484        0.76638031964841
H           -6.80585380701749       -4.05985368110249        1.92049906742635
H           -8.48458090069054       -3.55479109072852        2.08877790650835
H           -7.18849113148222       -2.54926106689973        2.74277149505845
H           -7.09397154277357       -4.23119893439466       -0.61383120802798
H           -8.77688387720015       -3.73783411627605       -0.45358412476376
H           -7.69056114322785       -2.84252669506678       -1.51966853242879
H           -5.14044861767212       -3.89735060913151        0.43217305619155
H           -2.82577465590936       -3.20967175889186        0.12304791171977
H           -6.45600480363843        0.18268566643012        0.33631153759682
H           -5.30097662682817        2.57420023410681        0.08653237769712
H           -3.34657987502092        5.23962827725049        1.87871870072975
H           -3.46501799016373        6.73148483574740        0.94145526535100
H           -2.04875018193029        5.69767197941064        0.77839843283430
H           -3.84926317952846        6.60240350538456       -1.59228895214136
H           -3.98118531328112        5.02268057269328       -2.37048851181142
H           -2.42810287200770        5.57370905320234       -1.74703496323281
H           -5.62517601196655        6.11894408270370        0.00905148936365
H           -5.64246143699575        4.64554853189363        0.97019618184405
H           -5.90568598400050        4.57352189870815       -0.78241217910205
H           -1.32149061760840        4.04135648861797       -0.54118096265012
H           -0.43556869430509        1.77286773276359       -0.55378854377964
H           -1.53066917515629       -2.49448561097419       -1.78693906938488
H            0.68079618077588       -3.58411001067714       -1.97985191590338
H            5.10830450292291       -4.22240481545234       -0.05798732370007
H            7.29485383294782       -3.26163306926232        0.60109128010546
H            8.85966035580372        2.52132886831801        0.91795397998852
H            7.48541672667365        4.51481452659527        0.40978272753137
H            5.14926122903313        4.26226775840244       -0.31282268653235
H            4.14480370083695        2.02192559585595       -0.54287410410899
H            3.53955493470122       -0.29103232590978       -0.71537568546875
H            2.23088523268905       -0.93818194878028        1.01082358032606
H            0.04183140242133        0.12737046649009        1.20911918022194
