  90
       -133.21099938
 C         -5.1923176805       -0.0188554937        2.2879251755
 C         -5.3684226437       -0.2843868982        0.7897196040
 C         -6.3211218837        0.7423475514        0.1702857199
 C         -5.8441822945       -1.6984064042        0.5392773653
 C         -7.0155916781       -2.2996366562        0.9438924445
 C         -7.2443282876       -3.6245369434        0.5950351973
 C         -6.3114209846       -4.3335198286       -0.1452688997
 C         -5.1306353395       -3.7366896383       -0.5562142293
 C         -4.9001336810       -2.4148148594       -0.2121159150
 C         -3.7787391584       -1.5387360498       -0.4987332004
 C         -2.6045763183       -1.7513655762       -1.2020298603
 C         -1.6979605933       -0.7163004619       -1.3279216576
 C         -1.9420004873        0.5300008789       -0.7467275882
 N         -1.0068942117        1.5587681391       -0.8391365489
 C         -1.4360906914        2.8907464475       -0.9612021459
 C         -2.5705242013        3.2067228128       -1.7063813286
 C         -2.9643208959        4.5208467444       -1.8657514296
 C         -2.2170224196        5.5429319353       -1.3035592340
 C         -1.0873445265        5.2379887976       -0.5661491887
 C         -0.6912905997        3.9209850873       -0.3690014486
 C          0.4783357514        3.6361206113        0.4836950336
 C          0.3441669135        2.8286233966        1.6082337063
 C          1.4218087210        2.6035897839        2.4432976500
 C          2.6465865814        3.1875154683        2.1664933846
 C          2.7925388253        3.9835947233        1.0426400406
 C          1.7143479716        4.2108211241        0.2079876421
 C          0.3368666003        1.2762241862       -1.1302031398
 C          0.9539550672        1.9550488281       -2.1839409262
 C          2.2584331554        1.6956923635       -2.5537742825
 C          2.9912931733        0.7150571307       -1.9014968714
 C          2.3946715188        0.0476643191       -0.8556445540
 C          1.0880103039        0.3290659108       -0.4269323884
 C          0.8142449459       -0.4828548784        0.7546771018
 C         -0.2680490388       -0.5492183771        1.6199512677
 C         -0.2145911708       -1.4132751643        2.7018018622
 C          0.8979799530       -2.2046925191        2.9359808147
 C          1.9925142525       -2.1402467520        2.0858263018
 C          1.9415041052       -1.2794888616        1.0124412618
 C          3.0066436170       -1.0511848348       -0.0264627917
 C          4.3701757350       -0.7245425066        0.5231312710
 C          4.7292231596        0.3285635016        1.3341174523
 C          6.0585362751        0.4428654643        1.7178556661
 C          7.0020968426       -0.4810445390        1.2940870495
 C          6.6440461935       -1.5402742308        0.4753308794
 C          5.3196786433       -1.6601917375        0.0877440387
 C          4.6489983356       -2.6375103172       -0.7552199643
 C          5.1278639084       -3.7530337853       -1.4220339453
 C          4.2390840729       -4.5153596197       -2.1630416632
 C          2.8970058861       -4.1741401905       -2.2368509056
 C          2.4097042435       -3.0576445362       -1.5708841964
 C          3.2915487752       -2.2961996542       -0.8364810093
 C         -3.1306291816        0.7414634518       -0.0349665591
 C         -4.0350615076       -0.2850373956        0.0774007417
 H         -4.5026670097       -0.7425286868        2.7175861504
 H         -4.7958697420        0.9808451230        2.4511231131
 H         -6.1472400539       -0.1022748100        2.8014042478
 H         -6.4496839396        0.5411285963       -0.8913446441
 H         -7.2945362366        0.6942331452        0.6527864051
 H         -5.9223735410        1.7476527528        0.2882068100
 H         -7.7496646567       -1.7565529136        1.5218731956
 H         -8.1599586802       -4.1075426926        0.9038403765
 H         -6.5089151484       -5.3637210035       -0.4046069364
 H         -4.4052242035       -4.2913837140       -1.1328821612
 H         -2.3989477133       -2.7084385014       -1.6577185673
 H         -0.7881879541       -0.8643451113       -1.8904850124
 H         -3.1344689794        2.4098288391       -2.1693358574
 H         -3.8469952697        4.7477421525       -2.4450785980
 H         -2.5147826155        6.5719261920       -1.4369877529
 H         -0.5080059107        6.0275899914       -0.1094952675
 H         -0.6163043103        2.3928390867        1.8387255281
 H          1.3038093521        1.9748716111        3.3140527218
 H          3.4834557550        3.0336031689        2.8326337068
 H          3.7491603879        4.4336693816        0.8199528525
 H          1.8274509887        4.8313597892       -0.6693801654
 H          0.3818081642        2.6941154481       -2.7265009138
 H          2.6985485295        2.2443106540       -3.3729887682
 H          4.0020858712        0.4805764548       -2.1992533301
 H         -1.1479267755        0.0525221276        1.4695144650
 H         -1.0582681785       -1.4680882211        3.3747332297
 H          0.9156208538       -2.8712177951        3.7856268877
 H          2.8694102423       -2.7466639007        2.2614314073
 H          3.9891191413        1.0461645388        1.6543122801
 H          6.3628271568        1.2614080497        2.3540726484
 H          8.0308726587       -0.3721263684        1.6060865019
 H          7.3835174578       -2.2551869846        0.1460157934
 H          6.1716569243       -4.0244699961       -1.3657559117
 H          4.5954904606       -5.3886442113       -2.6899884457
 H          2.2227279101       -4.7849045419       -2.8191908917
 H          1.3633634447       -2.7935640798       -1.6234988212
 H         -3.3161423197        1.7033527597        0.4218896083
