90
 energy: -133.211022692194 gnorm: 0.000037963685 xtb: 6.7.1 (edcfbbe)
C           -5.01224245406000       -0.01734100436517        2.13798263596301
C           -5.16565590257882       -0.38854356204284        0.65976163670151
C           -6.13473315403492        0.57076986133646       -0.03737110644969
C           -5.60647290324256       -1.82710699401770        0.50276571480305
C           -6.76908649564728       -2.42582776558075        0.93546540283180
C           -6.96397779286167       -3.77657468278072        0.67675606808552
C           -6.00649939517707       -4.51316108082765       -0.00268263154524
C           -4.83390471681813       -3.91923404239877       -0.44047148425305
C           -4.63705336538185       -2.57182669357601       -0.18621766140242
C           -3.53195229338029       -1.69190332209595       -0.52060332901980
C           -2.34355673159112       -1.92599533607508       -1.19261353487849
C           -1.45865059583367       -0.88150051876704       -1.37998851516205
C           -1.73934556033655        0.39676881099188       -0.89221258005524
N           -0.82683083199134        1.43806551471054       -1.04556182740156
C           -1.28480636738536        2.74803644083477       -1.26440316668455
C           -2.40999268404903        2.98538551934389       -2.05147384124654
C           -2.83065006598052        4.27597642356392       -2.30628423427787
C           -2.11981485798942        5.35126191740006       -1.79858089206416
C           -0.99978449372586        5.12410357280929       -1.01951400389670
C           -0.57748887020722        3.83324092718854       -0.72715218822924
C            0.57836706795620        3.63328541753613        0.16746521318453
C            0.43503708968963        2.89989808237006        1.34060562149288
C            1.49763267504189        2.75447057822492        2.21178098231597
C            2.71600320273919        3.34582530575283        1.92292099033246
C            2.87107378367697        4.06903237917821        0.75196130756247
C            1.80797630118771        4.21616166840408       -0.11925816184475
C            0.52816417551665        1.17050954477385       -1.29513912170007
C            1.14595507699234        1.79157205678126       -2.38364296422078
C            2.46320705650008        1.54345584546612       -2.71364178668004
C            3.21008325796184        0.63109908956835       -1.98283550966606
C            2.61282067139379        0.02174974899006       -0.90252740330659
C            1.29141425687176        0.29542345625666       -0.51565469871756
C            1.01956571402691       -0.43712031778626        0.71721505328891
C           -0.07511923736538       -0.47218605896228        1.56861922886511
C           -0.01452992001995       -1.25014285868065        2.71360707058254
C            1.11681866228776       -1.98701693281701        3.02363665419687
C            2.22264236898240       -1.95437985779554        2.18635374753806
C            2.16439180296371       -1.17891721492672        1.05018001842599
C            3.23889665220567       -0.99903802579924        0.01131554955677
C            4.58702540301640       -0.60535873430544        0.55457955551159
C            4.91330990910445        0.51074530585677        1.29191480745037
C            6.23325795949268        0.67713245998364        1.68881471217331
C            7.20008420093431       -0.25791595384821        1.35047570597235
C            6.87539009191629       -1.38004125762363        0.60484349719340
C            5.56063333411886       -1.55204236860483        0.20437007916393
C            4.92278462345543       -2.60049018260765       -0.57631945558733
C            5.43382503905265       -3.75092974355629       -1.15406235405921
C            4.57225944886735       -4.58171814749681       -1.85238751568107
C            3.22545421430615       -4.27347868275285       -1.97129846332268
C            2.70599727009864       -3.12229119804301       -1.39460312936156
C            3.56083027278011       -2.29285662247953       -0.70316534009510
C           -2.94253049631161        0.63006619649169       -0.21239364496628
C           -3.82440551676214       -0.40722332864432       -0.03742246909650
H           -4.31658688121501       -0.69819334301691        2.62437385828697
H           -4.63347312979818        0.99764718527548        2.23608427345233
H           -5.97200508475712       -0.08089730556613        2.64540409982262
H           -6.24505440533042        0.29666410052298       -1.08457783045867
H           -7.11282504983893        0.53099081755118        0.43632294618691
H           -5.76176637177601        1.59120541357495        0.01769701257853
H           -7.52214174134172       -1.86121352020734        1.46645638553153
H           -7.87217809828792       -4.25826303089246        1.00885872348660
H           -6.17809904721130       -5.56291561243887       -0.19282942424964
H           -4.08929954281264       -4.49556733895201       -0.96944815362592
H           -2.11030731293408       -2.90777867576702       -1.57680386732112
H           -0.53733257696077       -1.04732356960792       -1.91831181387401
H           -2.94515970122044        2.14561005798838       -2.47080628126021
H           -3.70545997275768        4.44222072251054       -2.91725247034331
H           -2.43860181017895        6.36141509828873       -2.00650523575481
H           -0.44948285919935        5.95621513353771       -0.60431935666839
H           -0.52134420871105        2.45917820689802        1.57888453071615
H            1.37297036458505        2.18187683076762        3.11951810730970
H            3.54013819057584        3.25509172841054        2.61605324355537
H            3.82299086954981        4.52439878376218        0.52028754163573
H            1.92827033955064        4.77944809946456       -1.03352245208156
H            0.56451256756060        2.47593784597322       -2.98492056950674
H            2.90330482520469        2.04622159113120       -3.56177808583169
H            4.23211613502910        0.40522564797553       -2.24698985289974
H           -0.96989753096245        0.08875042888385        1.35991486747119
H           -0.86751423535646       -1.27974685862038        3.37630797355355
H            1.14022822901651       -2.58586247122012        3.92215814364922
H            3.11377649184875       -2.51898515012739        2.41999341598785
H            4.15545882806605        1.23626293576919        1.54606275704328
H            6.51188852586934        1.54566235438314        2.26769090081305
H            8.22085918272913       -0.10775486061846        1.67121594543681
H            7.63279962810709       -2.10344554662669        0.34131126354743
H            6.48142686262835       -3.99673985949623       -1.06218126623433
H            4.95380185875720       -5.48316902954944       -2.30958741232970
H            2.57266939217237       -4.93772891041820       -2.51841881760701
H            1.65587351217403       -2.88379086751989       -1.48216486002762
H           -3.15637112318433        1.61747733338880        0.17191052170317
