99
 energy: -158.102295441358 gnorm: 0.000066490981 xtb: 6.7.1 (edcfbbe)
C           -1.14479767158554        3.73434466339981        0.52145791184553
C           -0.13527315959871        4.42167694933007       -0.13336579863244
C            0.85079531713784        3.73091250479915       -0.81391255179997
C            0.85020871369815        2.34008381237153       -0.84095971769416
N            1.86602087150044        1.65709952077035       -1.52035817375010
C            3.21605366326590        1.76341630124080       -1.23853475867811
C            3.88671225962200        2.68647227899554       -0.45171576578879
C            5.26290803498894        2.58885359920508       -0.37262916075180
C            5.96098078987567        1.58030171148131       -1.03119874159580
C            5.29559135396571        0.63888918408595       -1.79084231255508
C            3.91562591863610        0.73245385573326       -1.90646108193470
C            2.93401414073479       -0.03080618167426       -2.62478108004681
C            3.00038651794032       -1.14875554690708       -3.44587931129688
C            1.83439475897183       -1.62353353439912       -4.01242629433070
C            0.61747523531875       -0.98008957270699       -3.79407429341210
C            0.52752116461703        0.13433620926884       -2.98358351033608
C            1.68836755064965        0.58326640899763       -2.36953427216531
C           -0.18005698285246        1.64714703271438       -0.18894977095349
C           -0.23867601289847        0.18576860425207       -0.18248868380305
N           -1.43751151886687       -0.38137052376615       -0.20638278071558
C           -1.45446218738253       -1.69553749270576       -0.38438638132255
C           -2.74155383809975       -2.39248423348926       -0.41876610770471
C           -2.73598729382205       -3.78846028444810       -0.40274651719723
C           -3.90926358439677       -4.50641519671321       -0.29850429078971
C           -5.11977318972406       -3.83729170543735       -0.19296030673246
C           -5.14796663043446       -2.45633038506806       -0.22878699024336
C           -3.97298228132431       -1.72103894130929       -0.35885976374703
N           -4.06998871889692       -0.32593979789785       -0.43285733165999
C           -3.65464538883148        0.45880454836697       -1.48559416139325
C           -3.13865959919278        0.07736802297286       -2.71443034561334
C           -2.82355893191970        1.07542141716765       -3.61715816597407
C           -3.01674851846313        2.42085202289244       -3.30914932630537
C           -3.55111535506433        2.80342499530379       -2.09512480085938
C           -3.88358678225276        1.81834958256239       -1.17520953595867
C           -4.45437711261361        1.84297080367917        0.14299880004369
C           -4.86537866993597        2.86149387651384        0.99252059829589
C           -5.34965698399347        2.52716483861207        2.24203081656334
C           -5.42181950537672        1.19731754672601        2.65182579414116
C           -5.02302475225913        0.16524751955718        1.82357259019675
C           -4.54748561869277        0.49581135140812        0.56341573358775
N           -0.35662807265320       -2.45063684828817       -0.44970510336441
C            0.77434414244268       -1.81465906594769       -0.18882270287861
C            1.98229211833845       -2.60246951357230        0.08685784861102
C            2.38628785752063       -3.62072306590984       -0.76308621440565
C            3.55395526208108       -4.31661916197126       -0.50670495055003
C            4.30972514065880       -4.01037298233947        0.61348279176031
C            3.89766909427979       -3.01914491512996        1.48699828686688
C            2.73383570070970       -2.30487627029686        1.23250016625255
N            2.30031432594866       -1.30117253608550        2.11292568547609
C            2.97933602733949       -0.11755655321155        2.34715011718623
C            4.30797667790347        0.19603899305658        2.11167558988689
C            4.74975539167638        1.45023154854897        2.48718085914931
C            3.88747760940441        2.38702392143996        3.05053946576268
C            2.55468740777357        2.09127099703184        3.25610347661252
C            2.09502071528742        0.82690594876666        2.91485733103071
C            0.81455136823086        0.18308845342411        3.01612664881460
C           -0.43886884066232        0.60050256808820        3.44335626167270
C           -1.48871556233872       -0.29558733127903        3.39432164174799
C           -1.29016983694496       -1.60659106586155        2.96778964213548
C           -0.05028967566782       -2.04694290878806        2.54375276366011
C            0.99184091577493       -1.13029034493967        2.52800778655360
N            0.89367764383096       -0.49716499492605       -0.11209815086403
C           -1.16994232692604        2.35442224866525        0.48325532271512
H           -1.91309917732677        4.27073797318851        1.05676096642579
H           -0.11701409499568        5.50162037012623       -0.12056555019882
H            1.62398869229979        4.26564104507930       -1.34512603157671
H            3.35660731014691        3.45373886013099        0.09081005658798
H            5.80830435225131        3.31357519541366        0.21347663052369
H            7.03656243430909        1.53584887916724       -0.94203790770745
H            5.83343545701912       -0.15069166357404       -2.29433946390666
H            3.94634940727454       -1.63451517125565       -3.63339531894914
H            1.86193182143554       -2.49799769997996       -4.64618651572809
H           -0.27560550741936       -1.36020116015838       -4.26890489915575
H           -0.41823076902401        0.63169260561067       -2.82290032029374
H           -1.78110686115752       -4.28745766769065       -0.45644720995088
H           -3.88354725455475       -5.58547926025181       -0.28603282267579
H           -6.04132175833683       -4.39141707008417       -0.09434158230216
H           -6.08711674368387       -1.92551819543481       -0.16937959163537
H           -2.98112010587535       -0.96457944249179       -2.95336565861149
H           -2.41670248391998        0.80906812625390       -4.58222227792446
H           -2.74731056071798        3.17095066429332       -4.03802176827047
H           -3.70965799847691        3.84597232145208       -1.86367257013117
H           -4.80269848790884        3.89292993287786        0.67903464672565
H           -5.67407120606931        3.30464161075738        2.91794127985287
H           -5.79638918318208        0.96916109873469        3.63919515625658
H           -5.07227045136946       -0.86370738952081        2.14848413293628
H            1.78850660776130       -3.83677580377411       -1.63512325733867
H            3.87461591906519       -5.09819218764620       -1.17864074936447
H            5.21971859253163       -4.55533985928601        0.81660317336898
H            4.46729320898874       -2.80132307670627        2.37800835985365
H            4.97870860188401       -0.50964510020012        1.64640799333158
H            5.78756835182340        1.70732886993247        2.33925412400187
H            4.27017482970524        3.35876015962047        3.32625680504780
H            1.88110404677197        2.82028045420913        3.68160137651157
H           -0.58783716329250        1.61033185272077        3.79520091180383
H           -2.47760145227008        0.01749734278306        3.69546378878221
H           -2.12348081034594       -2.29474339412136        2.96090719312887
H            0.09533123504545       -3.06638850301386        2.21599599432755
H           -1.93992126561350        1.79822811431806        0.99321617344508
