  99
       -158.02785402
 C         -1.2858190815        3.7476623517        0.4075835286
 C         -0.2842187876        4.4170709512       -0.2845254669
 C          0.7096316581        3.6997295700       -0.9277752459
 C          0.7217628406        2.3122313240       -0.8851630429
 N          1.7328842336        1.6002021923       -1.5436937010
 C          3.0852378556        1.7445117266       -1.3238279068
 C          3.7646026682        2.7035642052       -0.5860423915
 C          5.1450316610        2.6481321367       -0.5720048456
 C          5.8395277841        1.6447204447       -1.2426753053
 C          5.1674988842        0.6658468818       -1.9509412862
 C          3.7832440509        0.7182554899       -2.0054802338
 C          2.7894899261       -0.0772794378       -2.6730181044
 C          2.8457313429       -1.2058374886       -3.4772234538
 C          1.6663054499       -1.7064061035       -3.9976563150
 C          0.4490736175       -1.0755220828       -3.7519511668
 C          0.3683509381        0.0512463554       -2.9562706517
 C          1.5421040810        0.5191412160       -2.3805703381
 C         -0.2977809164        1.6291750921       -0.1911116343
 C         -0.3316077139        0.1859882642       -0.1287258744
 N         -1.4837034122       -0.4337565299       -0.0820941086
 C         -1.5305346861       -1.7636941008       -0.1661134221
 C         -2.7761859651       -2.4459827211       -0.1011040903
 C         -2.8199162010       -3.8499218273        0.0052059468
 C         -4.0092504050       -4.5114778279        0.1860196053
 C         -5.2065486779       -3.8030681760        0.2674007209
 C         -5.1941608254       -2.4237433224        0.1334850441
 C         -4.0067082858       -1.7421497452       -0.0679813743
 N         -4.0401411555       -0.3489880615       -0.2492616195
 C         -3.7360275927        0.3171094697       -1.4174840492
 C         -3.2886154231       -0.1949233656       -2.6254433965
 C         -3.0539295605        0.7006097801       -3.6533147101
 C         -3.2596783520        2.0678929793       -3.4856413004
 C         -3.7258698331        2.5791180242       -2.2880375990
 C         -3.9771113649        1.6997650527       -1.2460131478
 C         -4.4695265825        1.8606349577        0.0963122361
 C         -4.8778995703        2.9517188232        0.8479579718
 C         -5.2814296269        2.7416003518        2.1545155777
 C         -5.2780277333        1.4647510284        2.7149815381
 C         -4.8834028922        0.3602786995        1.9854431108
 C         -4.4875751202        0.5639073556        0.6691922098
 N         -0.3764331390       -2.5106172339       -0.2548404020
 C          0.7315081629       -1.8287211151       -0.1388246290
 C          1.9763406743       -2.5967612888        0.0490042667
 C          2.3082577156       -3.6437110245       -0.7959684662
 C          3.4898576702       -4.3392213354       -0.6131216474
 C          4.3327386849       -4.0062052566        0.4349881600
 C          3.9965200698       -2.9830747401        1.3034759756
 C          2.8210111143       -2.2651603231        1.1179595443
 N          2.4787846770       -1.2186282059        1.9859848737
 C          3.2215771419       -0.0677545645        2.1711862358
 C          4.5451557184        0.1897993548        1.8499957299
 C          5.0671069910        1.4193173078        2.2054910488
 C          4.2855058963        2.3882076551        2.8279672561
 C          2.9542993674        2.1511609571        3.1147038535
 C          2.4181777281        0.9118936830        2.7994931326
 C          1.1237028784        0.3171565618        2.9971643208
 C         -0.0777211976        0.7813966655        3.5123189609
 C         -1.1545899409       -0.0843985654        3.5635147878
 C         -1.0281862893       -1.4098784408        3.1561378249
 C          0.1602122162       -1.8955949932        2.6429012324
 C          1.2184800212       -1.0062947390        2.5132015096
 N          0.8384569205       -0.5066695347       -0.1084466671
 C         -1.2919425671        2.3712359333        0.4489111409
 H         -2.0591866311        4.3032157973        0.9163399447
 H         -0.2801327534        5.4957637228       -0.3287744846
 H          1.4731956720        4.2143390150       -1.4926623282
 H          3.2357585628        3.4660213568       -0.0360140184
 H          5.6964589626        3.4007107892       -0.0286546598
 H          6.9187701284        1.6325661765       -1.2046243878
 H          5.7060530454       -0.1178421502       -2.4624430703
 H          3.7914584351       -1.6817581286       -3.6895478615
 H          1.6869514811       -2.5909464286       -4.6172222572
 H         -0.4526618255       -1.4742621094       -4.1929710473
 H         -0.5775872979        0.5407629632       -2.7777976687
 H         -1.8822549151       -4.3812105280       -0.0376706684
 H         -4.0187932508       -5.5879343556        0.2749614139
 H         -6.1402083143       -4.3220169213        0.4184985242
 H         -6.1182349465       -1.8630336813        0.1627727561
 H         -3.1215725493       -1.2541179877       -2.7509074314
 H         -2.7005583995        0.3344012107       -4.6061745594
 H         -3.0542358299        2.7358570261       -4.3089577574
 H         -3.8908748242        3.6387966318       -2.1652257957
 H         -4.8772657649        3.9430601212        0.4204002064
 H         -5.6018478122        3.5790602233        2.7565660128
 H         -5.5908660332        1.3390765051        3.7410560508
 H         -4.8759367177       -0.6289633545        2.4176014303
 H          1.6388316551       -3.8865282628       -1.6065844886
 H          3.7527719011       -5.1421766373       -1.2849771226
 H          5.2513853427       -4.5535627016        0.5860755395
 H          4.6325363305       -2.7460800286        2.1433767565
 H          5.1525593110       -0.5403225170        1.3381642252
 H          6.1048124301        1.6298893914        1.9958262759
 H          4.7282979926        3.3387432781        3.0867312992
 H          2.3438317147        2.9065948955        3.5864491566
 H         -0.1692218367        1.8009149781        3.8556196296
 H         -2.1064682199        0.2652217610        3.9356521928
 H         -1.8765783237       -2.0738883401        3.2349954556
 H          0.2514393862       -2.9260804411        2.3334788125
 H         -2.0453144171        1.8350810073        1.0037380702
