99
 energy: -158.031731479025 gnorm: 0.000121585906 xtb: 6.7.1 (edcfbbe)
C           -1.22774780773248        3.73604973792006        0.53328236979555
C           -0.19531763595397        4.41590826029736       -0.09807192396488
C            0.80531932286370        3.71126794172716       -0.74430368997640
C            0.79244202855925        2.32275829902103       -0.76346881057290
N            1.81078508806772        1.62025471220947       -1.42086754465394
C            3.15846406078863        1.72257248161714       -1.14775844172660
C            3.83297884809445        2.63499415324487       -0.34976033019347
C            5.21010061745223        2.54237132850880       -0.28695359077796
C            5.90435110989043        1.54644649755856       -0.96884786581255
C            5.23544948057133        0.61410100909515       -1.73921875457745
C            3.85566837060182        0.70572369988447       -1.84309900194975
C            2.86883751809863       -0.03865575426010       -2.57639974592697
C            2.92817929676299       -1.13675409425322       -3.42225175838344
C            1.75751786157302       -1.58884207946759       -4.00208103869100
C            0.54673412737748       -0.93967043284213       -3.77339124471224
C            0.46309198248843        0.15703807940555       -2.93689256617314
C            1.62607751478885        0.57605106570668       -2.30549734170992
C           -0.25842571882273        1.63155978767487       -0.13140080109238
C           -0.31232075026080        0.18318825840750       -0.13725688006301
N           -1.46243454184739       -0.42817910383398       -0.20424602727642
C           -1.51145354878383       -1.76001508213005       -0.34846173079537
C           -2.75937789267382       -2.43219042946671       -0.42355933978709
C           -2.81984518603310       -3.84001392298911       -0.43523845351385
C           -4.02398379504047       -4.49892839518051       -0.40793235376735
C           -5.21986471379353       -3.78546366911803       -0.36690287710138
C           -5.18829469178946       -2.39984887133115       -0.38077081518887
C           -3.98458838111009       -1.71954343220715       -0.42648093838830
N           -3.99565740269042       -0.31343308157406       -0.47991288741693
C           -3.65961802417439        0.45226489018471       -1.57567293014768
C           -3.17994749655122        0.04669723060439       -2.81117069605333
C           -2.91142818247727        1.02864826790181       -3.74773892055340
C           -3.11592393517344        2.37687603289280       -3.46406524183267
C           -3.61358355803590        2.78259847290345       -2.23912400189879
C           -3.89823717366367        1.81565395456372       -1.28700627690157
C           -4.42484495031158        1.85880641519655        0.05142075008568
C           -4.84858345918631        2.88039920309208        0.88779186480738
C           -5.28760160125880        2.55596283533380        2.15893098532960
C           -5.30627436800812        1.23366071528299        2.60113922119921
C           -4.89735045940743        0.19683773266576        1.78528297875627
C           -4.46342810599872        0.51635717818640        0.50483683863673
N           -0.35584277371292       -2.50810035917777       -0.36480817053037
C            0.74300676061825       -1.84547769867638       -0.14600882291611
C            1.96846618537335       -2.61965436465050        0.11084814199231
C            2.34570819320416       -3.66297279632313       -0.72078928869849
C            3.50853225245276       -4.36840368176551       -0.47049899132525
C            4.28764660109269       -4.04899516447666        0.63018367933558
C            3.90477482026094       -3.03044686843820        1.48469442405271
C            2.74754301841686       -2.30304841379174        1.23376820028728
N            2.35703565956294       -1.26578005063080        2.09244625718203
C            3.09448774480135       -0.12455469051981        2.34639853042783
C            4.43486368758692        0.13233144861736        2.10443651177896
C            4.94163237326318        1.35101477453038        2.51451798944604
C            4.13125347554300        2.31083431364185        3.11409765618515
C            2.78571673838255        2.07483317301475        3.32276133035214
C            2.26217122398172        0.84549164796342        2.95139102720707
C            0.95602332867410        0.25469061072204        3.06316933655054
C           -0.26941599555212        0.71457194468645        3.52356449159722
C           -1.35285591236852       -0.14337777996927        3.49209022366552
C           -1.21225116577739       -1.45852791766081        3.05659032831038
C           -0.00004984721922       -1.94057559616511        2.59882115507605
C            1.07002338645782       -1.05733988842759        2.55309289207166
N            0.84693702339941       -0.51785089991923       -0.06678534631915
C           -1.25861300707933        2.35814705467598        0.51187240673230
H           -2.00634037469721        4.28219601681279        1.04393927308956
H           -0.17131555674551        5.49535943517293       -0.09298850105036
H            1.59512395089712        4.23641934230532       -1.26107216347791
H            3.30337334030035        3.39025112642403        0.20962031955804
H            5.75910276607523        3.25993070172955        0.30404292670602
H            6.98078298144823        1.50395711765891       -0.89085177780405
H            5.77283033191961       -0.16385435277416       -2.26074105667963
H            3.87014049553645       -1.62597551132498       -3.62033380460607
H            1.78005613607618       -2.44884963038978       -4.65516380534870
H           -0.34752290452172       -1.29945172222391       -4.26070683050020
H           -0.47734711253854        0.66188309568322       -2.77276775969731
H           -1.88555224776455       -4.37865470064362       -0.44638719419644
H           -4.04656125439021       -5.57887908310652       -0.40975476570643
H           -6.16576952355754       -4.30340978215349       -0.33673613868409
H           -6.10802483673731       -1.83133991544052       -0.37406850604978
H           -3.01472696836957       -0.99852910212639       -3.02508469108271
H           -2.53127836705298        0.74634802998036       -4.71869318578590
H           -2.88429938188044        3.11427274895139       -4.21825511309396
H           -3.77695881166364        3.82830976276274       -2.02678640211524
H           -4.83276943913177        3.90625412740365        0.55164953287404
H           -5.61994181023752        3.33787331764006        2.82568266872275
H           -5.64868109937992        1.01791640326214        3.60255382456442
H           -4.90792792556488       -0.82784113273705        2.12486145171599
H            1.72637887942506       -3.89408073654221       -1.57353850826858
H            3.80692821604103       -5.16845746621044       -1.13086349208910
H            5.19156594037097       -4.60383978826953        0.83324094656328
H            4.48914998110452       -2.80448644333426        2.36419952214218
H            5.06626199663089       -0.58983668663040        1.61062468919826
H            5.99021263320907        1.56024017117843        2.36662152402943
H            4.56334387928471        3.25326389643602        3.41693673311395
H            2.15341372395638        2.82310556400796        3.77690735767716
H           -0.37302589062199        1.72545991424994        3.88834134993483
H           -2.32185391890327        0.20343297621630        3.82011353924743
H           -2.06795788758637       -2.11761260497507        3.07051490987842
H            0.10156633095256       -2.96380248200052        2.26904064917038
H           -2.03806840193884        1.81201086543999        1.01874632500913
