  104
       -142.75906138
 C          2.3747006942       -3.0794941614        2.3284128353
 C          3.1596224927       -2.8514737110        1.0724545337
 C          4.4845514485       -3.2624968638        1.0051455740
 C          5.2469641906       -3.0451691429       -0.1267477340
 C          4.6900275083       -2.3939206516       -1.2140365626
 C          3.3731340745       -1.9824339337       -1.1609220736
 C          2.5934468483       -2.2187738151       -0.0331096431
 C          1.1875465846       -1.7460681394       -0.0466564384
 C          0.9508018703       -0.3613181973       -0.0012339447
 C          2.1018100615        0.5652059094       -0.0141303734
 C          2.2725602495        1.4624016597       -1.0620668424
 C          3.3401597024        2.3352805769       -1.0739915718
 C          4.2788835306        2.3522385226       -0.0454818325
 C          5.4267709692        3.3472997873       -0.0978407482
 C          6.3566735634        3.2406195745        1.1135658818
 C          4.8500304786        4.7696241977       -0.1349275669
 C          6.2566235862        3.0881104989       -1.3628308870
 C          4.1076067534        1.4450400268        0.9917637904
 C          3.0405260648        0.5651351600        1.0075281866
 C         -0.3469491012        0.1224175689        0.0412700177
 C         -0.5188832831        1.5887627860        0.0133880052
 C         -1.2046449178        2.1891324488       -1.0356552003
 C         -1.3180817153        3.5643472489       -1.1153119484
 C         -0.7508745844        4.3915629292       -0.1538158791
 C         -0.8538190349        5.9073715358       -0.1972926270
 C         -1.5884974669        6.3916674514        1.0609020235
 C         -1.6224027992        6.4126260423       -1.4209987571
 C          0.5601432541        6.5037834577       -0.2394716294
 C         -0.0633296791        3.7823948934        0.8928404845
 C          0.0578081859        2.4107442781        0.9761987898
 C         -1.4458483466       -0.7682945801       -0.0196580544
 C         -1.1949440803       -2.1372061197       -0.3042647601
 C         -2.3005306952       -2.9367701390       -0.7502223022
 N         -2.1316858690       -4.2501934727       -1.1511144005
 C         -3.5615875205       -2.3997013611       -0.7912073358
 C         -3.8633567986       -1.1204812810       -0.2844860234
 C         -5.2070669658       -0.6118443282       -0.2213936725
 C         -6.3030360703       -1.3063702514       -0.7635096678
 C         -7.5731722323       -0.7909731650       -0.7354895686
 C         -7.8095845016        0.4598067681       -0.1642446571
 C         -6.7683467285        1.1599323256        0.3855681638
 C         -5.4602359970        0.6447748559        0.3854235283
 C         -4.3752071535        1.3431727411        1.0032744309
 N         -4.6026443035        2.5372832144        1.6762559414
 C         -3.1003217777        0.8636461020        0.8775013387
 C         -2.8014619579       -0.3196478651        0.1702444999
 C          0.1322592852       -2.6270686355       -0.2110014068
 C          0.4663032096       -4.0694133690       -0.2405614835
 C          1.2879474802       -4.5674053686       -1.2482738658
 C          1.6741601430       -5.8946314755       -1.2603223527
 C          1.2464207071       -6.7409588628       -0.2526400058
 C          0.4287816927       -6.2537475661        0.7518548329
 C          0.0275004475       -4.9256353289        0.7773707297
 C         -0.8803401872       -4.4401716007        1.8660277462
 H          1.9385016295       -4.0770309602        2.3164862515
 H          3.0201709303       -3.0030231773        3.2015764925
 H          1.5676172166       -2.3564768897        2.4168240805
 H          4.9248396270       -3.7557878137        1.8606301384
 H          6.2754271150       -3.3738584445       -0.1575181904
 H          5.2810482372       -2.2065260264       -2.0985954973
 H          2.9333130351       -1.4693218677       -2.0046460317
 H          1.5596049501        1.4751249888       -1.8737576981
 H          3.4360385066        3.0179406782       -1.9048210483
 H          7.1541248493        3.9755962471        1.0243874280
 H          5.8190464819        3.4382322983        2.0380042251
 H          6.8122465762        2.2548650030        1.1692465482
 H          4.2402021658        4.9496603689        0.7479701017
 H          4.2279987144        4.9209237653       -1.0123387053
 H          5.6545436341        5.5017757525       -0.1555195879
 H          5.6581170424        3.2134547017       -2.2606997294
 H          7.0943227676        3.7806511721       -1.4111527780
 H          6.6467525701        2.0724603725       -1.3520422674
 H          4.8063364590        1.4094225423        1.8115356273
 H          2.9318991993       -0.1203456715        1.8347015799
 H         -1.6545266767        1.5688737416       -1.7976250492
 H         -1.8593596486        3.9815604170       -1.9482800814
 H         -2.5848827073        5.9559740743        1.1017075892
 H         -1.0540650744        6.1090272210        1.9638036321
 H         -1.6848100345        7.4752706450        1.0468257638
 H         -1.1308462443        6.1105684509       -2.3428386115
 H         -2.6434936143        6.0387757396       -1.4219003789
 H         -1.6618934262        7.4999770441       -1.4014501838
 H          1.0929046159        6.1418223879       -1.1163759965
 H          0.5095801468        7.5894856584       -0.2886479739
 H          1.1329283311        6.2286902646        0.6414615556
 H          0.3930760424        4.3849633270        1.6638374396
 H          0.5932466924        1.9693583797        1.8043278156
 H         -2.8968094023       -4.6294084611       -1.6856044819
 H         -1.2160792884       -4.5106770628       -1.4762494796
 H         -4.3490313023       -3.0212366510       -1.1881396864
 H         -6.1519157256       -2.2661336009       -1.2309963495
 H         -8.3924654094       -1.3476432663       -1.1668257308
 H         -8.8079379025        0.8719144659       -0.1603836818
 H         -6.9527155790        2.1374793986        0.8057380928
 H         -5.4762475564        2.6067728926        2.1742907966
 H         -3.8137112113        2.8582642542        2.2176727457
 H         -2.3083911082        1.3948393404        1.3772780139
 H          1.6168678816       -3.9055578612       -2.0354445705
 H          2.3107062980       -6.2644308902       -2.0504082112
 H          1.5481498281       -7.7778441851       -0.2484435837
 H          0.0970083463       -6.9178790941        1.5376978509
 H         -0.6739846213       -3.4042428082        2.1188845817
 H         -1.9141941206       -4.4982280310        1.5286699929
 H         -0.7769371548       -5.0555231214        2.7571608106
