57
 energy: -77.863779426195 gnorm: 0.000060776235 xtb: 6.7.1 (edcfbbe)
C           -4.16666736918342       -3.47913984010331        0.99883426994162
C           -3.19183062384441       -3.52180012060044       -0.18707009546777
C           -3.97446666954819       -3.67185134518195       -1.50017411646653
C           -2.29581131195085       -4.75278217085324       -0.02406306600131
C           -2.40536786631678       -2.22311125708485       -0.21984232160217
C           -3.10063527085664       -1.01351075856391       -0.36794318859221
C           -2.46882372003041        0.21328290053227       -0.39102785855776
C           -1.08974501447858        0.23849301878478       -0.24132620374409
C           -0.35923314336916       -0.97070815855809       -0.13704007159426
C           -1.01744602289887       -2.18805108351017       -0.11793229256743
C            1.03083344189708       -0.60282279774861       -0.09339431430583
C            2.20169671707755       -1.33401211353093        0.01541260109628
C            3.42593271612172       -0.67478740034486        0.06901963157555
C            4.74715974965995       -1.41639585623914        0.17938048194489
C            4.57137241375030       -2.93726542621734        0.20032539046401
C            5.62583234777573       -1.05419071992235       -1.02715731291271
C            5.45049266598438       -0.99912159364365        1.47934236787092
C            3.43650558599483        0.72786983652988        0.03614512507190
C            2.28348007611194        1.48106551429279       -0.07582925554746
C            1.07249053396695        0.81174706795969       -0.16814351087165
N           -0.21566475334615        1.30803543236586       -0.25479124537548
C           -0.56424736528919        2.63613638402537       -0.34121368527810
C            0.11674341268121        3.51049134439841       -1.17860976550234
C           -0.23551847026217        4.83755133018940       -1.27689086972137
C           -1.30650419481850        5.34760276010608       -0.47512898757391
C           -1.97962039402093        4.53975087674383        0.38191280697554
C           -1.63319941918756        3.16491761376794        0.53136995928363
C           -2.11486736789087        2.43179571250023        1.58741618214511
N           -2.59059859252695        1.80410192244517        2.44628888774968
H           -4.87287427757006       -2.65967604256773        0.90417831921667
H           -4.72779017967796       -4.40952932898338        1.05377175097115
H           -3.61932047721409       -3.34861493805876        1.92964835361236
H           -3.29174460042381       -3.67441838445305       -2.34748557961641
H           -4.68375329051432       -2.86073046309097       -1.63618885348546
H           -4.52641185096592       -4.60919133189445       -1.49866854276827
H           -2.91376552787237       -5.64788285802325        0.00216810057528
H           -1.60407399100752       -4.84871256335454       -0.85800297091712
H           -1.73370447224860       -4.70723206733504        0.90569348290262
H           -4.17351239579898       -1.02838243832764       -0.47295746027848
H           -3.03798294772690        1.11958991853100       -0.52395854729970
H           -0.43742633420759       -3.09110209428201       -0.02743781844894
H            2.13927475101503       -2.40794707581857        0.06593886560407
H            5.54766992212337       -3.41255669793532        0.26874694547950
H            4.09087206894100       -3.28919004208598       -0.70970062192336
H            3.98549626300410       -3.25232157524172        1.06060659447594
H            5.83826125816381        0.01053968402661       -1.06000276249509
H            5.12584503346477       -1.33127838679574       -1.95295977206482
H            6.57191706211533       -1.58819392464485       -0.97262285915074
H            4.81906944327243       -1.22251272313847        2.33663281360752
H            5.67347984727927        0.06387551454832        1.48855342691674
H            6.38588851949292       -1.54369182501204        1.58771997338158
H            4.37590343866585        1.25275334685729        0.10778833533023
H            2.33159292202333        2.55900307072707       -0.07178236947587
H            0.88085330171987        3.10526578661907       -1.82771938859849
H            0.25206174952362        5.48359108536717       -1.98770914699538
H           -1.57638449943523        6.38847262879271       -0.57012186167552
H           -2.78125566059318        4.92223920790362        0.99716992512644
