57
 energy: -77.965073670550 gnorm: 0.000113136085 xtb: 6.7.1 (edcfbbe)
C           -4.16045647798595       -3.50881568232251        0.98401421723852
C           -3.18396873521874       -3.53027578623936       -0.20018635690393
C           -3.96235416319477       -3.67253321214344       -1.51585910355309
C           -2.28019915745654       -4.75701228224675       -0.04835178984429
C           -2.40038781665866       -2.22601877679025       -0.21880855581596
C           -3.09995767154961       -1.01951668037818       -0.34960178300719
C           -2.47698142946812        0.21173142670243       -0.36126553091424
C           -1.09955549582748        0.24247879119992       -0.22170359067776
C           -0.36710110434204       -0.95710584506626       -0.12857070720388
C           -1.01946399943395       -2.18264585314137       -0.12105226410936
C            1.02182077146000       -0.58793587441438       -0.07868392006097
C            2.19305488583534       -1.32495621150004        0.03289183798879
C            3.41491621351270       -0.67317109014127        0.07566265307315
C            4.73795660832336       -1.41636324788873        0.19050594900772
C            4.55669212163563       -2.93616801994968        0.23227673171596
C            5.61420661950197       -1.07541243814459       -1.02321881832841
C            5.44711913373720       -0.98590658852672        1.48225925174057
C            3.42863118315216        0.72650517047234        0.02189744600862
C            2.27975382423127        1.48426284215498       -0.08733993853757
C            1.06716479282585        0.81831778960420       -0.15613591598913
N           -0.22289995188559        1.31602207323874       -0.23479829551280
C           -0.57048962324541        2.66110478726111       -0.31058544948274
C            0.03390720414892        3.49126370090784       -1.25197096149376
C           -0.31160138479078        4.82610652613334       -1.33785388570803
C           -1.27364373106437        5.36000501623446       -0.49154266234015
C           -1.87925172272762        4.55642609118457        0.45312931322649
C           -1.52904682913850        3.20969857781451        0.55947236091207
C           -2.10625148321281        2.43857531673762        1.59405592875320
N           -2.56769061697294        1.85893558944884        2.46933452549642
H           -4.87246049361052       -2.69317307306070        0.89689857624384
H           -4.71606465248566       -4.44336254280770        1.02933916020883
H           -3.61506353113703       -3.38421190112836        1.91698168133493
H           -3.27699039819285       -3.66294929822317       -2.36106557817771
H           -4.67426134854161       -2.86236076552124       -1.64591257864938
H           -4.51105266536836       -4.61208885823484       -1.52673941339543
H           -2.89143805427403       -5.65724143947864       -0.03116831064586
H           -1.58683729335655       -4.83878671745258       -0.88236358085526
H           -1.71826809148051       -4.71513890072715        0.88171423253933
H           -4.17415649667363       -1.03783045419494       -0.44912484927153
H           -3.05738132283063        1.11445341503982       -0.48158350941173
H           -0.42885829868961       -3.08008740303098       -0.04335177271434
H            2.12237229429820       -2.39816463388558        0.08971981489043
H            5.53098012190699       -3.41526134599965        0.30667567820187
H            4.07320810370115       -3.29755100587770       -0.67242862576442
H            3.96887086277219       -3.23639084937597        1.09652140895132
H            5.83265346059073       -0.01221209177465       -1.06990305658683
H            5.10810021666642       -1.36017130561935       -1.94344643107739
H            6.55797642295638       -1.61398737827524       -0.96733745288419
H            4.81939063452918       -1.20133536671717        2.34443409034714
H            5.66717922243668        0.07798105978338        1.47950547051990
H            6.38468631292526       -1.52678624080453        1.59338017236477
H            4.37151672146893        1.24940261749588        0.07170079361787
H            2.33452021561062        2.56285657869702       -0.10562393448691
H            0.76258711455733        3.06915010806802       -1.92752885083562
H            0.16309017028482        5.45335578390468       -2.07741810151561
H           -1.54665546609203        6.40109985842136       -0.56824211198270
H           -2.62090815320291        4.95872909758249        1.12755513419622
