  57
        -77.85991468
 C         -4.2360551546       -3.4191723032        0.9786572254
 C         -3.2510432188       -3.4719030581       -0.1989329816
 C         -4.0258191656       -3.6026602494       -1.5191516646
 C         -2.3771662665       -4.7185053892       -0.0344929091
 C         -2.4460583696       -2.1858865559       -0.2198310853
 C         -3.1253677765       -0.9651871815       -0.3632815612
 C         -2.4703302676        0.2540971329       -0.3707982568
 C         -1.0928690842        0.2566727957       -0.2199429004
 C         -0.3736481317       -0.9683376102       -0.1243980801
 C         -1.0565842533       -2.1757671846       -0.1117901569
 C          1.0151192202       -0.6237909331       -0.0823616251
 C          2.1828186168       -1.3695533388        0.0144209909
 C          3.4143864447       -0.7224419797        0.0795703139
 C          4.7242312890       -1.4822529235        0.1899765466
 C          4.5345204338       -3.0011728140        0.1554183118
 C          5.6351278885       -1.0900943964       -0.9829836487
 C          5.4014377981       -1.1147147094        1.5188650231
 C          3.4457923590        0.6811376624        0.0658211673
 C          2.2962330874        1.4497581880       -0.0424332601
 C          1.0809016727        0.7956479785       -0.1446078866
 N         -0.2007420665        1.3089288433       -0.2292635554
 C         -0.5160244579        2.6465692717       -0.3202842964
 C          0.1815078625        3.4827593811       -1.1900578409
 C         -0.1221120653        4.8198434823       -1.2981342247
 C         -1.1440589900        5.3770643960       -0.4848434710
 C         -1.8305182706        4.5959782544        0.3988319417
 C         -1.5521847006        3.2165142477        0.5329332364
 C         -2.1262529190        2.4848653900        1.5559895424
 N         -2.6412847867        1.8792630664        2.4018775204
 H         -4.9312945857       -2.5910903973        0.8795554612
 H         -4.8085694282       -4.3429355643        1.0263972720
 H         -3.6950434942       -3.2973041456        1.9141691798
 H         -3.3359486237       -3.6149185081       -2.3604769946
 H         -4.7184319363       -2.7778151890       -1.6579074278
 H         -4.5947451719       -4.5297474145       -1.5251783686
 H         -3.0104059255       -5.6031005459       -0.0169421243
 H         -1.6806503329       -4.8227449870       -0.8634066535
 H         -1.8215510540       -4.6863256264        0.8997000160
 H         -4.1972613698       -0.9612233808       -0.4728372714
 H         -3.0263152566        1.1692425317       -0.4985808409
 H         -0.4931480132       -3.0890478528       -0.0220451372
 H          2.1096271756       -2.4432143081        0.0459671948
 H          5.5055537066       -3.4876873076        0.2199530808
 H          4.0627670961       -3.3159008225       -0.7725983206
 H          3.9346482397       -3.3413346265        0.9961319009
 H          5.1506899941       -1.3228048041       -1.9289691393
 H          6.5700452680       -1.6434823026       -0.9284982591
 H          5.8678469867       -0.0293838844       -0.9706826122
 H          4.7531632465       -1.3711129310        2.3540415066
 H          5.6213560462       -0.0524007439        1.5724345325
 H          6.3351862959       -1.6626478774        1.6245898282
 H          4.3896461674        1.1947984359        0.1499136119
 H          2.3572206327        2.5271178087       -0.0274248087
 H          0.9217497648        3.0394624214       -1.8415327057
 H          0.3892330142        5.4398735530       -2.0160578944
 H         -1.3746081693        6.4275536937       -0.5753035995
 H         -2.5970493086        5.0189666438        1.0322226523
