  64
        -96.80815274
 C         -7.5855830935       -0.7591508279       -0.8380065870
 C         -6.5497544440       -0.7548168015        0.3010320296
 C         -7.1927089457       -1.2536453197        1.6076867580
 C         -6.0642734947        0.6659227572        0.5134019481
 C         -6.9703638830        1.6469260446        0.8928445421
 C         -6.5824363382        2.9517091029        1.1334501206
 C         -5.2476631053        3.2927965464        1.0109166007
 C         -4.3274850742        2.3392729659        0.6295616042
 C         -4.7224916048        1.0264642105        0.3553078563
 N         -3.7748586937        0.0919728318       -0.0373735038
 C         -2.4398717314        0.5148848788       -0.2467462282
 C         -2.1209876885        1.2926314602       -1.3565968490
 C         -0.8199201217        1.7041224916       -1.5583599470
 C          0.1879829566        1.3277610924       -0.6718666135
 C          1.5719121567        1.8093781083       -0.9161552710
 O          1.7845455275        2.8919368810       -1.4315620692
 C          2.6754082970        0.9141247158       -0.5007036963
 C          2.5530047206       -0.4761929437       -0.5143879682
 C          3.6196177027       -1.2714911638       -0.1544623581
 C          4.8252961186       -0.6925938631        0.2357527180
 S          6.1202052414       -1.7763737788        0.7493421693
 C          7.5867537178       -0.8019131380        0.4644711177
 C          7.7949968170       -0.1880301216       -0.7625868368
 C          8.9575834565        0.5302613487       -0.9733827468
 C          9.9143774389        0.6196304622        0.0252438409
 C          9.7080721390       -0.0114835306        1.2405125190
 C          8.5427339601       -0.7233584324        1.4656348812
 C          4.9561086709        0.6922482603        0.2573077612
 C          3.8940323924        1.4816128183       -0.1266963656
 C         -0.1379630035        0.5609216681        0.4457904905
 C         -1.4426194164        0.1618659120        0.6581990952
 C         -4.1037187737       -1.2389482779       -0.2487311691
 C         -3.1200734357       -2.1398772021       -0.6678793943
 C         -3.4156397944       -3.4706810976       -0.8751575867
 C         -4.7056303497       -3.9282859718       -0.6780466051
 C         -5.6868457343       -3.0336911529       -0.2936294256
 C         -5.4169933368       -1.6891532319       -0.0778105656
 H         -8.4216624270       -0.1062758580       -0.6034261272
 H         -7.1238709902       -0.4084647646       -1.7592092377
 H         -7.9710346193       -1.7605958134       -1.0079087336
 H         -6.4570305277       -1.2420350286        2.4097057768
 H         -7.5626967299       -2.2687863349        1.4961840107
 H         -8.0254931762       -0.6195026927        1.8976572582
 H         -8.0125448819        1.3902086570        1.0069310920
 H         -7.3136994021        3.6901123749        1.4240768219
 H         -4.9178468940        4.3004186293        1.2145236139
 H         -3.2868076775        2.6119880444        0.5483746189
 H         -2.9014155308        1.5726078246       -2.0483847144
 H         -0.5589036179        2.3116867452       -2.4117086357
 H          1.6306529451       -0.9343237352       -0.8387861346
 H          3.5334359480       -2.3473082999       -0.1741418993
 H          7.0495392887       -0.2679145045       -1.5402931704
 H          9.1183120874        1.0143632064       -1.9249835623
 H         10.8214391389        1.1791097248       -0.1461909013
 H         10.4528681818        0.0527100433        2.0192734979
 H          8.3684308126       -1.2172009747        2.4093938166
 H          5.8838090799        1.1467953263        0.5709229155
 H          3.9841752362        2.5575265065       -0.1253325186
 H          0.6263487423        0.3027351737        1.1634182807
 H         -1.7018014361       -0.4252435509        1.5268548664
 H         -2.1142561239       -1.7897493654       -0.8401682209
 H         -2.6368482810       -4.1465337161       -1.1952378407
 H         -4.9498081733       -4.9678169390       -0.8332694536
 H         -6.6938992538       -3.3994863936       -0.1631165029
