64
 energy: -96.773094400813 gnorm: 0.000038478919 xtb: 6.7.1 (edcfbbe)
C           -7.71308358706722       -0.72853244210970       -0.73920662605585
C           -6.58534244501308       -0.79450937648294        0.31080904281713
C           -7.13209056046401       -1.35216589462428        1.64062164733675
C           -6.06313526110928        0.60483537363028        0.55055448933579
C           -6.91979050688830        1.59055973654320        1.02182003231424
C           -6.48697710154192        2.88201537188796        1.26200626909212
C           -5.15948454402078        3.21592483507120        1.02983916280066
C           -4.28606086942847        2.26174055166962        0.56198013813285
C           -4.72083824396667        0.94972545840623        0.31359535190236
N           -3.82274246130242        0.01746869086536       -0.15445998127283
C           -2.46813381728165        0.40904499783646       -0.36692843567725
C           -2.07740783997918        0.97755857491217       -1.58101131464934
C           -0.76992815354671        1.34717530096550       -1.77348838195115
C            0.20418902834028        1.14581805168649       -0.77300669661016
C            1.55916424011388        1.60079417504652       -1.02233653924203
O            1.77647769715977        2.49317003258860       -1.90470366027253
C            2.67659636086353        1.04351146278116       -0.28410067675492
C            2.67911603554668       -0.25572109367717        0.26335848654996
C            3.78125507929267       -0.73963195913036        0.92458124472715
C            4.93140698837129        0.04304630019266        1.04050444969391
S            6.30490092904948       -0.58637899742423        1.96038184111643
C            7.67958054296461       -0.35588535790457        0.86090325574430
C            7.51957920816348       -0.28011668320151       -0.51695790214722
C            8.63174982958835       -0.11770047491404       -1.32276712363473
C            9.89863175820577       -0.04223542170146       -0.76567555970020
C           10.05445501694397       -0.13332114197194        0.60944159590346
C            8.95013641616158       -0.28981429840118        1.42490662504187
C            4.96521349310614        1.32074319248830        0.47393167304144
C            3.86871823796096        1.79592915849739       -0.19587257899926
C           -0.22001102437416        0.61108005769971        0.45780328173240
C           -1.53058182241347        0.24449281980906        0.65400040274348
C           -4.18674123553719       -1.28486062500761       -0.41179379039363
C           -3.22533315432106       -2.18499278596550       -0.89906888961041
C           -3.55648708482657       -3.49348655806398       -1.16439832327838
C           -4.85533903455844       -3.93377929851385       -0.94816606293188
C           -5.80732090936410       -3.05020693109503       -0.47291636504576
C           -5.50526907674557       -1.72319799046816       -0.19794581420644
H           -8.51848355564422       -0.08514106141330       -0.39846802396794
H           -7.32639218187459       -0.33097796129406       -1.67565532124502
H           -8.12137188986311       -1.71679472431931       -0.92710439669359
H           -6.33491650136674       -1.39892130062482        2.38006951268299
H           -7.53285329885391       -2.35160500261078        1.50224076089081
H           -7.92341191923821       -0.71733292807763        2.02720942986882
H           -7.95425630156320        1.35009393408251        1.20971212681331
H           -7.17876902414472        3.62437147809052        1.62915210285991
H           -4.80705799070805        4.21918018268425        1.21460846117060
H           -3.25390173619873        2.51799118408183        0.38249888223862
H           -2.81046426144468        1.12118167737434       -2.36164457255302
H           -0.44948106019744        1.79588847692620       -2.70263570314701
H            1.82011911430853       -0.89551109581408        0.13001678003560
H            3.77644981390221       -1.73634649967000        1.34150454025866
H            6.53451513452330       -0.34846559852918       -0.95470657799092
H            8.50373988541431       -0.05617391254625       -2.39343113800834
H           10.76173783414478        0.08467372006620       -1.40159637160995
H           11.03914898645533       -0.07840109684485        1.04903121910456
H            9.05789963830491       -0.35820196803362        2.49685741847262
H            5.85675644116960        1.92519482425088        0.56390985357217
H            3.88047714168971        2.77606243836660       -0.65097238936215
H            0.48140320080534        0.52622903224161        1.27366626606010
H           -1.84802424694049       -0.16032004500590        1.60435857969618
H           -2.21795534631286       -1.83854758683005       -1.06743290597680
H           -2.80447705110285       -4.17073986751077       -1.53941100365481
H           -5.12378108050834       -4.95900442251759       -1.15154652270142
H           -6.81158833512313       -3.41030617001518       -0.31472926034761
