64
 energy: -96.848907444083 gnorm: 0.000055636258 xtb: 6.7.1 (edcfbbe)
C           -7.04747262103853       -0.31443112962910       -0.12817790923011
C           -5.78068656981559       -0.04063448118117        0.70423539987062
C           -6.14710231700099        0.12817066184183        2.19089286676051
C           -5.14197638974700        1.24614933942985        0.21509897935418
C           -5.86353048980464        2.43104217633993        0.27327174824375
C           -5.32902216200020        3.63915753639286       -0.13554299948007
C           -4.02980288892114        3.67717187300799       -0.60901830641008
C           -3.28978671062130        2.51510017984786       -0.67689547866471
C           -3.83474264994705        1.28965420401438       -0.28144144843382
N           -3.06564519813531        0.13731390741089       -0.36205438656365
C           -1.73623845138323        0.22823559235187       -0.85185125334608
C           -1.49903037366626        0.33891404126072       -2.21911638119370
C           -0.20406452494886        0.43664441451976       -2.68634962428608
C            0.87395022987058        0.40496639225741       -1.80169363874565
C            2.24807034212438        0.55268090091028       -2.34141463405106
O            2.46415720959575        1.21275878627512       -3.34807234534332
C            3.34217008878620       -0.11694126727976       -1.60586038034431
C            3.15673062523208       -1.32954644257622       -0.93869592392485
C            4.20939351812976       -1.92771889382158       -0.27886894104621
C            5.46246885535527       -1.31907875524307       -0.26288690805123
S            6.76965710108817       -2.14901774078900        0.58954932689650
C            7.84919982627160       -0.80280894351128        1.05014028459806
C            9.21118216975847       -0.92665273293241        0.82053810683266
C           10.06452150528845        0.08829597370400        1.21867519236814
C            9.55998996748550        1.21909813866149        1.83946336945357
C            8.19825835173570        1.33199143837343        2.07278195254702
C            7.33874730425604        0.31876592861251        1.68887843966177
C            5.66663895699585       -0.12903899286166       -0.95437532231968
C            4.61454172249491        0.45726765615825       -1.62429831798713
C            0.62975756090662        0.30453458751332       -0.43204740806269
C           -0.66607342502508        0.21904773679606        0.03803475252424
C           -3.55212153300370       -1.09792729260391        0.04122350512402
C           -2.75149439445113       -2.23570044176496       -0.09898322500013
C           -3.20494816201436       -3.47735276990904        0.29502735231511
C           -4.47299921902113       -3.60799521229006        0.83222273243766
C           -5.27389614266376       -2.48709483026178        0.95326760047143
C           -4.84334691063416       -1.22563880070095        0.56415707156209
H           -7.74554028878318        0.51491749596607       -0.05613455750050
H           -6.78136227658615       -0.44933200802140       -1.17530640997063
H           -7.55122204197581       -1.21333230808407        0.21600627899641
H           -5.25081314518971        0.33715978793312        2.77270628980206
H           -6.60651008987341       -0.77562308201736        2.58153574387266
H           -6.84354810573162        0.95078282864243        2.32739294000970
H           -6.87445317037364        2.41794982287564        0.65169617192364
H           -5.91955398719479        4.54124632444146       -0.07807851699631
H           -3.58686987456456        4.61103984061201       -0.92317477465634
H           -2.27358825265115        2.55652135703506       -1.03820667371747
H           -2.33406581371229        0.35435250879113       -2.90370180754785
H           -0.00417966968925        0.52879684273750       -3.74386069456311
H            2.19163442050500       -1.81287685654707       -0.95414055713778
H            4.07207260315956       -2.86772743159668        0.23380411724022
H            9.59320696682219       -1.81105626021794        0.33336925341106
H           11.12506116433371       -0.00535785364534        1.03848245709578
H           10.22679333147730        2.01168505180094        2.14443035437777
H            7.80171995908587        2.20875175944943        2.56301591943156
H            6.27791936690170        0.39834744741857        1.87574207950077
H            6.64307750661005        0.33122903399469       -0.97058206676323
H            4.75954488291605        1.37884385837124       -2.16899363858490
H            1.45330481474801        0.32211424599092        0.26541871659121
H           -0.86057233705856        0.14644370244408        1.09783401403002
H           -1.76556175275516       -2.14411313063260       -0.52828271525320
H           -2.56669372327559       -4.34109134997993        0.17846665052013
H           -4.84008534497804       -4.57342983422306        1.14681977357797
H           -6.26516634358315       -2.60562353188398        1.36393080372928
