93
 energy: -156.370155511545 gnorm: 0.000042549343 xtb: 6.7.1 (edcfbbe)
F           -3.25983024394210       -3.12222257445370       -2.78239026319528
C           -3.11934411344623       -3.67591319834934       -1.56685947797538
F           -1.86641717815653       -3.36604347545290       -1.16428269937092
F           -3.11880672151631       -5.00689569515735       -1.75807665239783
C           -4.15678301541617       -3.22286443341208       -0.58187645754749
C           -4.48581207517891       -4.03945120670407        0.49269338215961
C           -5.41538042261419       -3.59597916286212        1.41939601220667
C           -6.00004824955762       -2.35025643047466        1.28374964538701
C           -5.66644775771759       -1.53658577796377        0.20209296725704
N           -6.21679665960213       -0.25099526857641        0.08016806344989
C           -5.47737893173098        0.91696049557223        0.05261512070363
C           -4.02358055406902        0.96001834822005        0.11457626659470
C           -3.29029109274789        0.15427121825842        0.98459663451903
C           -1.91164025553935        0.21167912650473        0.99338758105384
C           -1.22372056667658        1.07672343819914        0.14336048561621
C            0.24455782728526        1.11050923341267        0.13546068799322
C            0.98229561753447       -0.06906697778837        0.22659286813083
C            2.36187290193083       -0.04321541672250        0.20267202191288
C            3.05354102875398        1.16301461257046        0.09756745738392
C            4.52192790557982        1.18854199620016        0.06669111707389
C            5.23564175976077        0.21264955803078       -0.62882432988118
C            6.61488094882125        0.22842903790937       -0.66199481594469
C            7.32393336722798        1.22431007487011        0.00824818772924
C            8.77723527624959        1.28787287836891       -0.02105673956387
N            9.44266007677098        2.41062383561269       -0.09617163967608
C           10.76526580706541        2.06473710146533       -0.15635190493927
C           11.90180721099025        2.86247451582733       -0.24254689751221
C           13.12708473136211        2.23056458268591       -0.26982099421238
C           13.23594218698825        0.83959275910519       -0.20310843083939
C           12.12138053356934        0.02867107933716       -0.11982956795744
C           10.88546366176780        0.65548751334929       -0.11236262786160
N            9.59617501817177        0.17762833887318       -0.02659887866388
C            9.23015558694717       -1.16878358454601        0.15731009944032
C            8.41590071886371       -1.52904863457986        1.22638605464205
C            8.06854809669793       -2.85517087963211        1.40673526253700
C            8.53697272223846       -3.82514943363475        0.53491851445227
C            9.35367839031317       -3.46599653274386       -0.52445458701675
C            9.70040721872106       -2.14059214657970       -0.71921972539562
C            6.61529597053052        2.21499148925100        0.68766123785864
C            5.23670329368796        2.19341537481002        0.71941585829982
C            2.31502187799809        2.34293059929382        0.01519757138742
C            0.93520586520173        2.31680918179159        0.02892777720166
C           -1.96369198505702        1.90779398297071       -0.69784351051467
C           -3.34184278507429        1.85343873760288       -0.71140485432960
N           -6.23681548880973        1.97727585304360       -0.02319790404225
C           -7.52046888509051        1.52225510658693       -0.04294384238956
C           -8.71727047101243        2.29236281134701       -0.06388976090722
C           -8.68238009816190        3.69132302393606       -0.05678101981404
C           -9.84904226580450        4.41422969301905       -0.02783574193377
C          -11.06997686556570        3.74230912382567        0.00021851978320
C          -11.11650975554645        2.36766182561688       -0.01531457935476
C           -9.94644158287366        1.59318538729800       -0.05824090800071
C           -9.96288099490815        0.14143752725488       -0.11798110730929
C          -11.16373678557755       -0.57610144073007       -0.22204639471494
C          -11.18851393857935       -1.94686288997158       -0.32785749171347
C           -9.99775350876175       -2.66637965954204       -0.35625342994969
C           -8.80019100907069       -2.00249781210948       -0.25048673625285
C           -8.75379171257095       -0.60789255305627       -0.10696802214401
C           -7.54156932744874        0.13091974668463        0.00616371519847
C           -4.73930916369047       -1.97363202188216       -0.73786320988867
H           -4.02195014159834       -5.00771385535688        0.59640275547390
H           -5.67757219887699       -4.22251425602810        2.25691205717647
H           -6.71653777900611       -1.99668943345307        2.01027477340028
H           -3.79841088729777       -0.50315029130103        1.67443936509330
H           -1.35939913121555       -0.40927430826595        1.68288642499201
H            0.46713627254297       -1.01653600017967        0.29145247529941
H            2.91287904727023       -0.96873589688578        0.28433056193535
H            4.70242942116503       -0.55310046707784       -1.17244243084260
H            7.14229904686105       -0.52381115713081       -1.23000453799782
H           11.81359728150947        3.93691379216876       -0.28123290036842
H           14.02877375932685        2.82168991156012       -0.33684180468342
H           14.21708511988495        0.38824115849875       -0.21610920557515
H           12.21114080712523       -1.04558886903233       -0.05788050588150
H            8.06052456875846       -0.76830956935314        1.90584630737380
H            7.43459134365214       -3.13112058999086        2.23590681315479
H            8.26636559797409       -4.85977273716710        0.68168756599221
H            9.71963370235180       -4.21827788244640       -1.20725383218932
H           10.32314608494357       -1.85067823266875       -1.55286121389108
H            7.16797003238681        2.99350856203428        1.19117568058163
H            4.70542765395905        2.95328508375252        1.27296545276110
H            2.82920713569153        3.28767218179470       -0.08347010827873
H            0.38321598374756        3.24375299189995       -0.02531276729475
H           -1.45071378583050        2.58376245407368       -1.36560193435423
H           -3.91229554996666        2.49191457510951       -1.36878336579844
H           -7.71641816811348        4.17289679230676       -0.06499079844963
H           -9.82560829163894        5.49405469933130       -0.01954065652255
H          -11.99062509970704        4.30695193780219        0.03444332782627
H          -12.08362453068915        1.89157594802528        0.01218609071725
H          -12.10325170274496       -0.04806587431827       -0.23315413198651
H          -12.13354376244031       -2.46388367693754       -0.40619039019376
H          -10.01305210597002       -3.74039327405227       -0.46834380037790
H           -7.87985529897717       -2.56208766872532       -0.29900589857307
H           -4.47765656463158       -1.34602204975912       -1.57595727524016
