93
 energy: -156.285764367731 gnorm: 0.000075004662 xtb: 6.7.1 (edcfbbe)
F           -3.62155820687633       -3.51172739802290       -2.42400465619471
C           -3.47854158977512       -3.97973799850083       -1.17202844719720
F           -2.17700636270762       -3.78583189882850       -0.85627168658032
F           -3.63478343200709       -5.31340793694055       -1.25159236304320
C           -4.40276519526615       -3.33354522884553       -0.18449837149468
C           -4.78683371813124       -4.03254043161909        0.95641015067386
C           -5.61157862814624       -3.40939150054750        1.88228354109909
C           -6.03814456217493       -2.11165649547492        1.68220483381444
C           -5.64730333820288       -1.41221214176750        0.53516271120965
N           -6.04289717549951       -0.08597485209003        0.33445788032410
C           -5.16415561570320        0.99925543024351        0.13603078508707
C           -3.76332819793095        0.99588977047688        0.24309111041714
C           -2.97990058596593       -0.01206125182268        0.87265110822842
C           -1.62048546710910        0.04852650357109        0.86911121571954
C           -0.90871010705507        1.12042200303016        0.26455977021604
C            0.51865014382522        1.13989293180554        0.21710503065209
C            1.27909982786450       -0.05193479454685        0.31056658799088
C            2.64427649985969       -0.04046879230645        0.23718942991123
C            3.36736211301210        1.16211582889925        0.10191529767863
C            4.81283280122403        1.17027798397369        0.04155451889980
C            5.52595680833627        0.07754900552721       -0.48183769429996
C            6.89870663401808        0.07289317436605       -0.53277843539323
C            7.63492753526555        1.16035837287735       -0.04516903004128
C            9.07743795030054        1.21393491740944       -0.07416833850334
N            9.74193591721820        2.34327174461799       -0.17015168589837
C           11.06170850919115        2.00702087174865       -0.22562020115250
C           12.19378022577205        2.81214356897755       -0.32817351052787
C           13.42329264361673        2.18948583847592       -0.34329081440565
C           13.54336224210800        0.80012061155360       -0.25073820458377
C           12.43504013536330       -0.01839092084446       -0.15117718810531
C           11.19428422344849        0.59801226005137       -0.15408549958669
N            9.91098323583062        0.10966121805140       -0.05741677680716
C            9.57928074903456       -1.23771977802152        0.17989690935810
C            8.81894696318818       -1.58507972000493        1.29260072182954
C            8.51471362533099       -2.91325555642027        1.52691679883950
C            8.97444683635371       -3.89810850613699        0.66693933369105
C            9.73831258559401       -3.55185681130557       -0.43530509717387
C           10.04175015504712       -2.22479964313084       -0.68383477069759
C            6.93226215883831        2.26888110235497        0.44930781722119
C            5.56071083564348        2.27342028452538        0.49204477175408
C            2.61727468720502        2.35310057432953        0.02608465296528
C            1.25051488170224        2.34299573323802        0.06385639591909
C           -1.69895816654234        2.17375976079317       -0.27590976352252
C           -3.05606540221948        2.11732656620254       -0.28573338405326
N           -5.85426977568104        2.12004160155290       -0.12349542810536
C           -7.14381432666033        1.80270931458863       -0.05793274814269
C           -8.25912827016246        2.68004025383168       -0.19651819540889
C           -8.07178995863083        4.05184884048424       -0.38941581546094
C           -9.15500112491151        4.89556919328663       -0.48492471308086
C          -10.43790295154331        4.36826323219110       -0.38119640390794
C          -10.63301824021198        3.01489747498134       -0.19643054655650
C           -9.55546193025914        2.12348586344145       -0.10721822780625
C           -9.72614129404885        0.68607814663371        0.04161966052284
C          -10.99376715069182        0.09816731786869        0.02426318913677
C          -11.17403743016179       -1.26611315465411        0.11350051360398
C          -10.06901195964658       -2.10978643431360        0.20413244105532
C           -8.80644554643903       -1.57653981074332        0.23517337592251
C           -8.59551918894454       -0.18238608308040        0.17884131212421
C           -7.31808530254979        0.41655832204393        0.20275608912131
C           -4.82286789918075       -2.03259168089260       -0.40486581691912
H           -4.44675754202618       -5.04396003821776        1.11069070332250
H           -5.91193719345982       -3.94083822583130        2.77133916595879
H           -6.66707538249285       -1.62171456935365        2.41011538911503
H           -3.46556758549850       -0.81064116184230        1.40990227373866
H           -1.06915400251423       -0.71976648108369        1.38927705313899
H            0.76949045615717       -0.99923268957090        0.40079803851836
H            3.18185476531054       -0.97373930374047        0.31607998284053
H            4.98631652233883       -0.76117529320670       -0.89469957507223
H            7.40786742389461       -0.76713277531512       -0.98099110387978
H           12.09674381780512        3.88481474530869       -0.38786366334417
H           14.32053456184971        2.78597862342159       -0.42167913556466
H           14.52808685097950        0.35657523446105       -0.25600001256371
H           12.53347036419840       -1.09061075039665       -0.06963971352083
H            8.46837520305894       -0.81212532184777        1.96065773220880
H            7.92173781907913       -3.17945039233457        2.38900553139819
H            8.73757710913841       -4.93416141343964        0.85594850493316
H           10.09694808622192       -4.31573398446236       -1.10906622891491
H           10.62363470417693       -1.94477366676922       -1.54983370314105
H            7.50097026843725        3.11346016291627        0.80706914658360
H            5.05118309806230        3.12557270666149        0.91509985802773
H            3.13203219108602        3.29406640004558       -0.09810909999952
H            0.72125197883493        3.28168780849055        0.00975472086856
H           -1.20932810958595        3.01709421569721       -0.73704964983288
H           -3.64317122123533        2.90699684392091       -0.72741987989069
H           -7.05924438299013        4.41964618814802       -0.45197225850407
H           -9.01267967959113        5.95536362103700       -0.63364640413761
H          -11.29397167194155        5.02410196888067       -0.44544100775489
H          -11.64644578933016        2.65592393602157       -0.11828771123929
H          -11.87000623546336        0.71774648192322       -0.07437828366050
H          -12.17098363146767       -1.68001362218312        0.09630059764382
H          -10.20457578101495       -3.18023663701018        0.24373514419912
H           -7.95682999152421       -2.23700034282303        0.27993622806337
H           -4.51666324084143       -1.49851305215607       -1.29139073194036
