93
 energy: -156.370242676879 gnorm: 0.000040291022 xtb: 6.7.1 (edcfbbe)
F           -3.18518726663867       -3.27744762174780       -2.41036761430557
C           -3.03792695357115       -3.74107804525295       -1.15870675951392
F           -1.76870401884477       -3.44099190069352       -0.80223327111649
F           -3.08117677058951       -5.08225648271381       -1.24701734813585
C           -4.04147015082499       -3.18234219683446       -0.19307889763857
C           -4.35390646896185       -3.89426294502113        0.95820844833009
C           -5.24944334513737       -3.35282053883483        1.86605977440499
C           -5.81612761735216       -2.11240408505722        1.63621553574348
C           -5.49949240895348       -1.40414160322330        0.47810670859916
N           -6.02794261676455       -0.12233709563057        0.25465999257080
C           -5.26566164680950        1.02253807003732        0.11252896978827
C           -3.81192934487055        1.05088236289077        0.16601582162489
C           -3.07674413211607        0.28468298125949        1.06977853118530
C           -1.69755218420176        0.32997952609483        1.06249785891684
C           -1.01048356577057        1.14784292124137        0.16655674674244
C            0.45794727218169        1.17070289587540        0.14559372346732
C            1.18810723965755       -0.01021384756837        0.27250546518074
C            2.56768429530828        0.00523653027049        0.23709208303577
C            3.26596409759935        1.20273013912782        0.08741338426296
C            4.73453745452316        1.21799397267000        0.05378832905610
C            5.44173834645928        0.22526112154910       -0.62395135598655
C            6.82124877473156        0.23027908659425       -0.65481763976165
C            7.53647258855068        1.23040373575336        0.00251196437920
C            8.99031564509418        1.28231504349203       -0.01790347458906
N            9.66358307734482        2.40059428445141       -0.09222287890101
C           10.98443671410520        2.04653040194099       -0.13833237659238
C           12.12666226715025        2.83697361656888       -0.21667086634813
C           13.34824754951362        2.19752837539140       -0.22868748311440
C           13.44787703210690        0.80619766580645       -0.15478395615008
C           12.32759473997326        0.00246928516749       -0.07899401270102
C           11.09551075395348        0.63682483205134       -0.08661550938342
N            9.80258931474026        0.16714012948744       -0.01063024548797
C            9.42835088273761       -1.17703935778275        0.17340267434379
C            8.60432741320890       -1.53154560063272        1.23690078295226
C            8.24875672710232       -2.85562863975523        1.41636025953711
C            8.71893014332655       -3.82929341347606        0.54959192908587
C            9.54600631269731       -3.47598779358454       -0.50368429786848
C            9.90080695335332       -2.15262186140815       -0.69775459838426
C            6.83387200713077        2.23824104459110        0.66303655179720
C            5.45513859250874        2.22903024723400        0.69018385045254
C            2.53514905639298        2.38422765908618       -0.03131929825780
C            1.15526679548671        2.36775806754797       -0.00949166790558
C           -1.75133005054167        1.94371047018464       -0.70729891167877
C           -3.12955820980479        1.89753646437158       -0.70825246792458
N           -6.00536164126282        2.08465752558091       -0.06896129486057
C           -7.29681918136266        1.65476962371260       -0.04684449414475
C           -8.47694500077066        2.44151385315259       -0.16473485594403
C           -8.41139696156181        3.83086811927779       -0.31918428359257
C           -9.56230636807021        4.57479502614930       -0.39972072384986
C          -10.79784557830375        3.93394658383305       -0.32340923445618
C          -10.87400249704280        2.56836707413487       -0.17715729084212
C           -9.72051417965027        1.77182393048410       -0.09921579745291
C           -9.76692199479087        0.32406706579628        0.01655150056341
C          -10.98329242699437       -0.37468327607590        0.00798228986882
C          -11.03793502188261       -1.74738625230234        0.06441496945745
C           -9.86260931602966       -2.49091000543365        0.11094217359741
C           -8.65090025158625       -1.84512494715192        0.13244042949544
C           -8.57347175217121       -0.44463539571820        0.11207627959678
C           -7.34539511706356        0.27591394526208        0.14178645141632
C           -4.60722369753971       -1.94103644532577       -0.44387917585224
H           -3.90357085502221       -4.85828719824171        1.13513226274123
H           -5.49831228544804       -3.89777971353613        2.76268540089620
H           -6.50433182169194       -1.68231178630313        2.34850631563498
H           -3.58191621561809       -0.33189834162641        1.79810803520607
H           -1.14389278454871       -0.26173573598267        1.77622914747232
H            0.66662168947957       -0.95091788842406        0.37539543256121
H            3.11391173796140       -0.92041680000415        0.34562671617034
H            4.90319071371096       -0.54576222795081       -1.15482072195579
H            7.34384797916510       -0.53471548876691       -1.21002663328344
H           12.04542261230320        3.91176075409073       -0.26084761803497
H           14.25419640878196        2.78283757133288       -0.28903227974151
H           14.42632696837828        0.34883322043855       -0.15575928156069
H           12.41016430566421       -1.07202179279821       -0.01110727582905
H            8.24757943756755       -0.76799414779746        1.91247529666015
H            7.60688183585755       -3.12715873330202        2.24089068337614
H            8.44164080230256       -4.86226010383295        0.69558052167410
H            9.91369803337920       -4.23116512217591       -1.18234165035987
H           10.53168299701153       -1.86703180997391       -1.52676130655664
H            7.39176432978138        3.01999430103744        1.15560876562157
H            4.92785863399751        3.00275528643309        1.22822633596849
H            3.05559481223948        3.32128662527748       -0.16477808772030
H            0.60851462055105        3.29555805071521       -0.09403080355309
H           -1.23867637547284        2.58392956730945       -1.40968848206836
H           -3.70169790356302        2.50672319291160       -1.39131424812771
H           -7.43483911026981        4.28846344819066       -0.36480665855123
H           -9.51586941805479        5.64746625540253       -0.51728734130196
H          -11.70662756496831        4.51579317482584       -0.37969065330382
H          -11.85200069771363        2.11779260856121       -0.12103373283699
H          -11.91200662424651        0.16866984260098       -0.05375030604077
H          -11.99434263895935       -2.24920150706116        0.05622641214141
H           -9.90084124826819       -3.57006452150679        0.12515054266061
H           -7.74311053242084       -2.42657350928325        0.14577019023693
H           -4.35860490028617       -1.39477561412936       -1.34088654903972
