53
 energy: -86.377391124047 gnorm: 0.000047763073 xtb: 6.7.1 (edcfbbe)
O            4.37870119890501       -2.01411165729309        0.92558057190495
C            4.84661168292402       -1.00456672212350        0.39917068260350
C            6.30285972662505       -0.81274404306204        0.32245943392395
C            7.11222116115449       -1.80889230704031        0.88900086514919
C            8.48389134463141       -1.72447431300524        0.86691323459258
C            9.09620018190920       -0.62703242888397        0.26703360437373
C            8.32755446298113        0.36603222519423       -0.29671858407600
C            6.93358237781060        0.28298010785387       -0.27289844278899
S            6.07390690774382        1.60882221780448       -1.01837854766673
C            4.39220174066982        1.19334440228100       -0.79137199373718
C            3.45831209924783        2.10625933913853       -1.28560915708966
C            2.11061601499768        1.87041054466823       -1.15642609548633
C            1.64433865633313        0.70626211487876       -0.53082868895564
C            0.20416337731822        0.44884910556212       -0.39366602311079
C           -0.29907156191186       -0.84358582815857       -0.60301910474726
C           -1.64240840977121       -1.13315864619974       -0.48597595365292
C           -2.50402466671830       -0.10417831054524       -0.12842427347264
C           -2.01787928489473        1.20999002903675        0.06961654521798
C           -0.66547430213206        1.48201819577293       -0.06648963018858
C           -3.15931280300152        2.02227403574666        0.38737670599594
C           -3.32020374927510        3.36686511363898        0.69726271090220
C           -4.58820762510444        3.83273469473334        0.98267526641252
C           -5.68600746310080        2.97400856612854        0.97366735915146
C           -5.55122618780479        1.63314948811939        0.66755514393022
C           -4.28237950762716        1.16321875802894        0.35809628375241
N           -3.87065427658796       -0.11738825092851        0.04437904148349
C           -4.70398725512595       -1.24307505681340       -0.07132427648759
C           -4.40707904160904       -2.40766364140654        0.63031762317889
C           -5.22820712911253       -3.51411436080751        0.50913655415433
C           -6.35096161968842       -3.46586139442834       -0.30096984261406
C           -6.65012808152545       -2.30524862311573       -0.99570629039184
C           -5.82915889721408       -1.19725355403431       -0.88909104905436
C            2.57938431144663       -0.19176036360633       -0.04768773540825
C            3.95796883496320        0.02450558655357       -0.16084502751333
H            6.60852590885255       -2.64858328634188        1.34588293427876
H            9.08207783878744       -2.50497672513215        1.31127454004861
H           10.17264200057535       -0.55186467784879        0.24354314348828
H            8.78713944467011        1.22347087822052       -0.76486323290436
H            3.81603834430507        2.99998325599420       -1.77465853690385
H            1.40343308273720        2.57979842001658       -1.55859201284831
H            0.38559605036578       -1.62873873564969       -0.88834843898106
H           -2.00949537904900       -2.13036195278823       -0.67589092705866
H           -0.29244368785752        2.48043569725695        0.10447099747559
H           -2.46766228192824        4.02916126374066        0.71965247520717
H           -4.73540597914673        4.87496285873386        1.22540916045745
H           -6.66370759120765        3.36486051779616        1.21564646414414
H           -6.40521458902921        0.97287520172870        0.67890788598791
H           -3.54168518876294       -2.43513746166305        1.27586005443641
H           -4.99308762485325       -4.41533472929351        1.05607301919886
H           -6.99164490880817       -4.33035283696359       -0.38975275584200
H           -7.52255812013799       -2.26415256835735       -1.63116208743412
H           -6.04711208999823       -0.29735596104694       -1.44499521922177
H            2.26842255303231       -1.09530518208905        0.45673262618649
