40
 energy: -70.114142336156 gnorm: 0.000049006457 xtb: 6.7.1 (edcfbbe)
C            5.65636986658577        1.42781605843193        1.67884798902816
C            4.57036516797251        0.73709378863997        0.91898338498065
C            3.25456799898060        0.96567012320972        1.10940957335162
C            2.28878406429653        0.24745611109688        0.32962620794978
N            1.00897881326824        0.43089327349147        0.53925403693354
C            0.09250052815105       -0.28031137439413       -0.16885563269597
N           -1.26830026671422       -0.02943900686692        0.04190662542651
C           -1.79591547232566        1.24551907870500       -0.11657703438682
C           -0.98762830173015        2.37521061287237       -0.24479853133317
C           -1.55239082699708        3.62584761019375       -0.40727484262069
C           -2.93128300937197        3.77442133877639       -0.47090905785881
C           -3.75047643958352        2.66632928726088       -0.36524358945441
C           -3.19439245174661        1.40563598882475       -0.18271857324758
O           -4.05157826135369        0.35486280561389       -0.09258210008201
C           -3.52988795424012       -0.87523127597610        0.16876912746521
C           -4.41335075570652       -1.92744881337596        0.33910455165255
C           -3.93757880273442       -3.19045457132758        0.64840593817539
C           -2.56811730082721       -3.39309937756900        0.81240119727796
C           -1.67895016063047       -2.35954607654227        0.63042644600297
C           -2.13384807887864       -1.07977836377972        0.27812726084119
C            0.49004779651202       -1.22478916007696       -1.13627816628939
C            1.81895688130421       -1.43573967443720       -1.36808470683888
C            2.78751314630220       -0.69491745824818       -0.61611012149637
C            4.18344616223394       -0.90374556094222       -0.78345658451715
O            4.71331896807113       -1.66236576008510       -1.57778050419663
O            5.04188978142186       -0.13796506000137        0.02330598975925
H            6.31248489800727        1.95085275008522        0.98519731789600
H            5.23970403034998        2.13323755718667        2.39032277667437
H            6.25944773243097        0.69014439264705        2.20559265348062
H            2.90886421554523        1.66607046421717        1.84950179561462
H            0.08210389977419        2.26062969221736       -0.19687153233018
H           -0.91139202277911        4.48867920890272       -0.49573888729878
H           -3.36773913593496        4.75055342256911       -0.61195628020134
H           -4.82373125724967        2.74722556287811       -0.42547438913282
H           -5.46851873672699       -1.73287191804632        0.23362777024886
H           -4.62797867986180       -4.00783952731377        0.77813544087082
H           -2.19891317524800       -4.36898354935210        1.08581902772241
H           -0.62136032128849       -2.51622455411074        0.76951984486422
H           -0.27329397203319       -1.72300771208403       -1.71597837879487
H            2.16821003061178       -2.14000130538222       -2.10388895134184
