40
 energy: -70.201245542151 gnorm: 0.000025894090 xtb: 6.7.1 (edcfbbe)
C            5.71172932997800       -1.91269459745398        0.68911625686939
C            4.59286782289654       -0.97940791458856        0.36435482844207
C            3.28510602031713       -1.26299681486682        0.52079915484876
C            2.30780136182244       -0.27553004402920        0.17119032200702
N            1.01635691171368       -0.55015803753347        0.33987579044850
C            0.10932079941711        0.36275512695065        0.02225164934857
N           -1.21619335947295        0.03943964015110        0.19441657747303
C           -2.20204483325821        1.04036187784596        0.30717489739590
C           -1.98425674977697        2.21533159604288        1.01670615782344
C           -2.96833095075717        3.18611522230152        1.08137830787869
C           -4.18696488823274        2.98611595992237        0.45627076757501
C           -4.44103480540173        1.79363333799262       -0.19820147586759
C           -3.45849919063303        0.81762648399055       -0.26192561597122
O           -3.75654431852855       -0.36842929334528       -0.87478233507870
C           -2.98713929326273       -1.43981523865543       -0.48722024129272
C           -3.51734368941009       -2.70461839527248       -0.68032589019410
C           -2.79845139374926       -3.82242024610673       -0.29385412856812
C           -1.56521699370879       -3.66778829059733        0.31084276850522
C           -1.03172706752792       -2.40485333098013        0.51179951286001
C           -1.72194696876048       -1.27741239568827        0.09035060856216
C            0.47112370650922        1.61838603845449       -0.52667795877606
C            1.79731908221369        1.90739534357701       -0.69849550117808
C            2.76114708464486        0.95672413159903       -0.32983442377964
C            4.18038966185282        1.22106055792950       -0.48138610311798
O            4.66839413649408        2.24297180729336       -0.89633549935562
O            5.03066445387233        0.20456376030703       -0.11276623925067
H            6.29743906695754       -2.11005152715431       -0.20722014331190
H            6.37541126888082       -1.45109751491776        1.41825478076697
H            5.32770636115530       -2.84671330700498        1.08539645756483
H            2.95734293884659       -2.21330705348804        0.90284070108553
H           -1.03577343381974        2.36699730433682        1.50919464091549
H           -2.77791737829847        4.09991531524577        1.62226386247366
H           -4.94904586127499        3.74857714316899        0.49333802318623
H           -5.39154646647658        1.59939298433540       -0.66849164862522
H           -4.48848853756595       -2.78857072128432       -1.14144489626348
H           -3.21042251135386       -4.80609915073431       -0.45720154833249
H           -1.00646323560963       -4.53353740520542        0.63138685125981
H           -0.06634207200497       -2.28131141272403        0.96900904905542
H           -0.29026164431570        2.31503314067107       -0.83803349324241
H            2.12497789742666        2.84308909931633       -1.12548343714076
