40
 energy: -70.201213531019 gnorm: 0.000055386306 xtb: 6.7.1 (edcfbbe)
C            5.90033484402117       -1.19991589508283        0.65305968374811
C            4.70125070515672       -0.42624008002431        0.21518115783122
C            3.42483185036467       -0.78635315235475        0.45270323315176
C            2.36194755449744        0.05137940961660       -0.01709807184548
N            1.10098959861173       -0.29485568228647        0.23394283416447
C            0.11608118200084        0.48419757769719       -0.18922874237694
N           -1.17775442342884        0.09613417660071        0.07617084319842
C           -2.21653742256806        1.04605446346441        0.13753489420910
C           -2.02655885451109        2.31173842887027        0.67954462798903
C           -3.06375858846202        3.22754409494890        0.70119119032233
C           -4.30777563508297        2.88357338987177        0.20168923814403
C           -4.52896966491472        1.60589944395309       -0.28177005849864
C           -3.49257995688961        0.68543962551972       -0.30269013998470
O           -3.75704928128508       -0.58130944957511       -0.74554796326806
C           -2.88747949577928       -1.55310732199702       -0.31063846102033
C           -3.34079125774315       -2.86153767133276       -0.33228384312869
C           -2.51875929180743       -3.88687005405132        0.10211307934599
C           -1.25601526094585       -3.59403920888736        0.58143458380848
C           -0.79925972553904       -2.28619303051873        0.61238880716569
C           -1.59753924147259       -1.25221739697297        0.14425660322906
C            0.36119404229488        1.66417808367582       -0.93479670168689
C            1.65483823788880        2.02509944149824       -1.19571175659447
C            2.70094569797334        1.22140685675181       -0.71774108034607
C            4.09028737918682        1.57017635717839       -0.95441923618505
O            4.48287020846522        2.54820657707371       -1.54074270773672
O            5.02926826981294        0.69715678056676       -0.45665169240406
H            6.49759879061384       -1.47476448812590       -0.21468728690095
H            6.52317790971510       -0.57940438546394        1.29527033519216
H            5.60314191299549       -2.09506790999114        1.18903857772875
H            3.18523388425124       -1.68615279551682        0.99070334182102
H           -1.05806497442142        2.57692691107308        1.07561200338050
H           -2.89465588801780        4.21120888349486        1.11063825796746
H           -5.11310667353946        3.60112099877606        0.20495280343398
H           -5.49534519007807        1.30152829889025       -0.65034346750740
H           -4.33575678845791       -3.05258731521936       -0.70155090996479
H           -2.87267578212588       -4.90560818498697        0.07227125142638
H           -0.61370577590228       -4.38534506347745        0.93605932590342
H            0.18772925775721       -2.05571385825339        0.97218509424792
H           -0.46291041391473        2.24321186881961       -1.31932622311939
H            1.89532826128540        2.90510227576700       -1.77271342484418
