40
 energy: -70.114135464738 gnorm: 0.000083214439 xtb: 6.7.1 (edcfbbe)
C            5.68106322938819       -1.53635939287195        1.41736642542047
C            4.57191492196512       -0.79223392474277        0.74658726721407
C            3.26286915154935       -1.04394124971655        0.95359598078885
C            2.27300381222972       -0.27508511120484        0.25682367434209
N            1.00043012450138       -0.48500053230000        0.48337152641973
C            0.06052725352613        0.26636588593666       -0.14890510063601
N           -1.29167445478152       -0.01832270492920        0.07152266452582
C           -2.16835791577434        1.00075485246075        0.39092430622091
C           -1.72640072799452        2.26459986244325        0.81098585038631
C           -2.62776215777179        3.27012270464455        1.07340027780976
C           -3.99684271646289        3.05443192335475        0.92629823163164
C           -4.45913014281129        1.80366774683785        0.55284308036298
C           -3.56291719148244        0.77902819357906        0.30098567159538
O           -4.07132296377436       -0.44264219997682       -0.01943851311668
C           -3.19981715807086       -1.47158186320388       -0.18973530895426
C           -3.74061430689950       -2.72943206492330       -0.42798498237973
C           -2.90725458711210       -3.81576959318592       -0.61771117788966
C           -1.52994032461816       -3.64648703695989       -0.58375456068983
C           -0.98096312638088       -2.39731984681429       -0.36562127985590
C           -1.80297877947928       -1.29078052099724       -0.15013515728088
C            0.42732040957542        1.28357017705405       -1.05314913818707
C            1.74845669407132        1.52623882596494       -1.29750324821516
C            2.74131417787069        0.74111744124682       -0.62618982441816
C            4.13100336138386        0.97485863676249       -0.81045840508364
O            4.63580363709623        1.79820969585496       -1.55514700602281
O            5.01480108401886        0.15475316377137       -0.08846077221549
H            6.30706310380910       -2.01469519556627        0.66587772130158
H            6.30848926018282       -0.83833154435138        1.96888625092598
H            5.28658261634927       -2.28665780776224        2.09478149952260
H            2.94059198012634       -1.80305900232450        1.64476188387411
H           -0.66883375387407        2.43093971893217        0.93825246332629
H           -2.26801209435266        4.23393033103240        1.39759494177079
H           -4.69723291878317        3.85060600999746        1.11909021631434
H           -5.51312858466278        1.59710190654390        0.45925013717394
H           -4.81369319153154       -2.82539207127574       -0.46414749832339
H           -3.33190887246419       -4.79000034548185       -0.80137532654086
H           -0.87764632815600       -4.49127577757401       -0.73889509323088
H            0.08774485329144       -2.26750708459505       -0.34021751483147
H           -0.35340033527927        1.81343367115785       -1.57916531064517
H            2.07397857843140        2.28683569720929       -1.98665565428679
