  130
       -171.93924551
 C          6.0542135778       -0.8898774638        4.1798077507
 C          4.7228206177       -0.6514365799        3.5281861311
 C          3.6636112152       -0.1654293554        4.2949156523
 C          2.4059273497        0.0277572257        3.7423934042
 C          1.2708828451        0.4987682166        4.6074312171
 C          2.2133375206       -0.2548127787        2.3960649448
 C          0.8128145887       -0.2470888984        1.8262389493
 C          0.4144784490        1.0762108411        1.4139623695
 C          0.0811101950        2.1941054933        1.1046586686
 C         -0.3289270087        3.4597515155        0.6531421020
 C         -1.0885904396        3.5720253038       -0.5171540815
 C         -1.4749841615        4.8035988734       -0.9892597034
 C         -1.1166984544        5.9850716486       -0.3188034367
 N         -1.4861726259        7.2150857067       -0.7986764991
 C         -1.3833703696        8.3976450054        0.0182036751
 C         -1.9889399510        7.3711095555       -2.1398167132
 C         -0.3679188943        5.8622821949        0.8640552202
 C          0.0104072981        4.6279897732        1.3391553243
 C          3.2990546840       -0.6144591052        1.5623026312
 B          3.0999926361       -0.5459254492        0.0031394784
 C          3.5357297607       -1.7559694174       -0.9007494584
 C          4.1688121435       -1.5050044870       -2.1471999586
 C          4.6790809837       -0.1348679229       -2.4843367245
 C          4.3388917684       -2.5279662793       -3.0719911638
 C          4.9536755983       -2.2629495316       -4.4178374239
 C          3.9480737204       -3.8205415208       -2.7489523050
 C          3.4000174636       -4.1151207756       -1.5039618808
 C          2.9822386706       -5.5263057982       -1.1993310543
 C          3.2239270287       -3.0971326270       -0.5769298560
 C          2.5818318284       -3.4474054279        0.7472003442
 C          1.1442468442       -3.5310976214        0.6094560433
 C         -0.0515457262       -3.5398018009        0.4545768330
 C         -1.4566896179       -3.5575848483        0.3268111147
 C         -2.2746453668       -3.2141247126        1.4045932411
 C         -3.6454167991       -3.2534817577        1.2971315102
 C         -4.2687635041       -3.6420998934        0.1013201457
 N         -5.6354185206       -3.6961652377       -0.0000940989
 C         -6.2607785145       -4.0876857692       -1.2361657706
 C         -6.4557899287       -3.5508500945        1.1762387382
 C         -3.4392854600       -3.9708997227       -0.9824613706
 C         -2.0684801663       -3.9263931365       -0.8716135665
 C          2.5058867517        0.7370323212       -0.6488030681
 C          2.9681740330        2.0386044823       -0.2785503175
 C          3.9953093217        2.1761736335        0.8055206391
 C          2.5005245965        3.1741356766       -0.9195062960
 C          2.9374944484        4.5562968558       -0.5182799972
 C          1.6125140261        3.0456111070       -1.9825585221
 C          1.1320330224        1.7992452563       -2.3757455828
 C          0.1655154282        1.7202570016       -3.5234230470
 C          1.5472389702        0.6654977733       -1.6968468204
 C          0.8847553192       -0.6485621703       -2.0517954369
 C         -0.4913026973       -0.6106174261       -1.6055379434
 C         -1.6176696885       -0.5173333527       -1.1880319740
 C         -2.9311898939       -0.4038456541       -0.6870036259
 C         -3.1504509851        0.0674899615        0.6075111917
 C         -4.4267587686        0.1822271558        1.1107626478
 C         -5.5477399763       -0.1658160569        0.3439433311
 N         -6.8262797227       -0.1166979033        0.8776790865
 C         -7.9614162901       -0.2572342043       -0.0036720711
 C         -7.0470162540        0.6390107913        2.0897399685
 C         -5.3183078357       -0.6115811299       -0.9642213366
 C         -4.0402412217       -0.7351312565       -1.4636214700
 C          4.5444289406       -0.8886172872        2.1715806145
 C          5.7128349083       -1.3745750389        1.3642206240
 H          6.3762460047       -1.9212617956        4.0385262635
 H          6.0000015561       -0.6883438429        5.2471281662
 H          6.8190343272       -0.2437761676        3.7477702737
 H          3.8189513824        0.0308644463        5.3465148827
 H          0.5788416831       -0.3183467147        4.8187258692
 H          1.6475081109        0.8727073126        5.5571057874
 H          0.7161205521        1.2923713235        4.1107931562
 H          0.7635114083       -0.9049366179        0.9553011618
 H          0.1066787599       -0.6192761291        2.5744995780
 H         -1.3718446378        2.6725033931       -1.0404602049
 H         -2.0746963286        4.8494211788       -1.8841299264
 H         -0.3604973468        8.7928101164        0.0410654868
 H         -1.6977430226        8.1837311372        1.0411368332
 H         -2.0406977500        9.1684479976       -0.3803972332
 H         -1.8588554845        8.4049451607       -2.4554678064
 H         -1.4330365239        6.7360389551       -2.8314539037
 H         -3.0537041623        7.1179931858       -2.2111839153
 H         -0.0575951973        6.7425861012        1.4035939821
 H          0.5933917438        4.5587585464        2.2469735571
 H          3.9676692924        0.3952039237       -3.1174198969
 H          5.6258986798       -0.1956925752       -3.0183722406
 H          4.8201589578        0.4520572392       -1.5839636912
 H          6.0131225033       -2.0214994948       -4.3219788027
 H          4.4630785385       -1.4248875010       -4.9101834452
 H          4.8645777115       -3.1404331785       -5.0545282480
 H          4.0858805768       -4.6147075990       -3.4689872611
 H          1.9472609880       -5.5544819884       -0.8624676119
 H          3.6062774744       -5.9594861947       -0.4157086734
 H          3.0767860307       -6.1487013229       -2.0863989248
 H          2.9666875842       -4.4008334747        1.1157287198
 H          2.8127582019       -2.6770869615        1.4842250694
 H         -1.8190552432       -2.9148474216        2.3376846527
 H         -4.2357660538       -2.9669464000        2.1511892607
 H         -5.9050248048       -3.4626701724       -2.0583368798
 H         -7.3383255901       -3.9596208369       -1.1558767118
 H         -6.0590316373       -5.1369629811       -1.4845055119
 H         -6.1481840864       -4.2478411195        1.9625145596
 H         -6.3984538003       -2.5311599310        1.5665809835
 H         -7.4927743917       -3.7624521702        0.9260985163
 H         -3.8651469045       -4.2742073876       -1.9245680746
 H         -1.4523418672       -4.1845921974       -1.7208186054
 H          4.5300653595        3.1184464671        0.7309369103
 H          3.5159823044        2.1281907816        1.7827405961
 H          4.7111648145        1.3622156954        0.7553213058
 H          2.3396069877        5.3019883156       -1.0374645876
 H          3.9858868628        4.7279979383       -0.7681057126
 H          2.8112795742        4.7039838485        0.5515306869
 H          1.2803561059        3.9313013767       -2.5059625021
 H         -0.7517522152        1.2206236767       -3.2187976708
 H         -0.0793122780        2.7171045360       -3.8840270118
 H          0.5943633712        1.1543672557       -4.3523312909
 H          0.9193820086       -0.8238024661       -3.1307479467
 H          1.3841052956       -1.4804899347       -1.5574457053
 H         -2.3018188419        0.3530969653        1.2107015997
 H         -4.5435948857        0.5514848162        2.1165207653
 H         -8.0189410342        0.5451325282       -0.7502657231
 H         -7.9140394209       -1.2150060704       -0.5227269207
 H         -8.8758002989       -0.2446854984        0.5864593483
 H         -8.1048513109        0.6124002145        2.3423007987
 H         -6.4962570642        0.1925885252        2.9199074889
 H         -6.7401682476        1.6875232906        1.9914497949
 H         -6.1435025182       -0.8616940745       -1.6103445813
 H         -3.8917251047       -1.0861246953       -2.4754329401
 H          6.5671059198       -0.7066741368        1.4790618880
 H          6.0236219551       -2.3633453575        1.7031201583
 H          5.4499104866       -1.4401718779        0.3145319776
