  57
        -77.86227708
 C         -5.6207076865       -1.0928236600       -1.0029489415
 C         -4.7281485838       -1.4711388062        0.1889295396
 C         -4.5395407225       -2.9907002434        0.1787948048
 C         -5.4238308535       -1.0840788827        1.5029314219
 C         -3.4160369042       -0.7149939697        0.0839682605
 C         -3.4432413198        0.6886535335        0.0673280893
 C         -2.2921372305        1.4537883669       -0.0384769732
 C         -1.0777141449        0.7961914415       -0.1379039754
 C         -1.0170001113       -0.6231733135       -0.0747220771
 C         -2.1857812315       -1.3654659279        0.0222905143
 C          0.3717462195       -0.9715661333       -0.1180178599
 C          1.0514153122       -2.1798886699       -0.1081183841
 C          2.4408296597       -2.1925759436       -0.2185789931
 C          3.2428915403       -3.4801114358       -0.2018644454
 C          4.2356090114       -3.4285093349        0.9693079672
 C          2.3667843986       -4.7241501113       -0.0306203621
 C          4.0090830296       -3.6122151079       -1.5269754172
 C          3.1222362899       -0.9732042998       -0.3612826225
 C          2.4701177818        0.2470312752       -0.3659688150
 C          1.0925441197        0.2519310753       -0.2136850002
 N          0.2040935993        1.3052713123       -0.2226628668
 C          0.5219367919        2.6411203187       -0.3194023413
 C         -0.1759558833        3.4738020309       -1.1916056225
 C          0.1289376781        4.8102231999       -1.3082350712
 C          1.1550642789        5.3692572446       -0.5016958328
 C          1.8431500486        4.5927565071        0.3840756445
 C          1.5621369555        3.2130100972        0.5289942105
 C          2.1340680362        2.4926042675        1.5588483608
 N          2.6492624313        1.9026843530        2.4179125419
 H         -5.1238456320       -1.3415324108       -1.9383932425
 H         -6.5586835313       -1.6411960172       -0.9536477046
 H         -5.8482640022       -0.0307981250       -1.0095313720
 H         -3.9467207527       -3.3183892765        1.0296906133
 H         -4.0605730384       -3.3205013324       -0.7403979587
 H         -5.5113708615       -3.4755116732        0.2426362914
 H         -6.3569955262       -1.6333559995        1.6054091778
 H         -4.7858850471       -1.3245907686        2.3507911303
 H         -5.6485955135       -0.0219494980        1.5368564800
 H         -4.3861101326        1.2045018835        0.1469307416
 H         -2.3493801037        2.5312166343       -0.0246219507
 H         -2.1160016787       -2.4389410696        0.0566136350
 H          0.4873320682       -3.0922723038       -0.0191174377
 H          4.8102912327       -4.3510341864        1.0109372553
 H          3.7008635231       -3.3099518243        1.9089820093
 H          4.9283981599       -2.5987602417        0.8675803432
 H          1.6662392600       -4.8285961171       -0.8560495754
 H          1.8154053692       -4.6881168517        0.9060109792
 H          2.9977220846       -5.6102218508       -0.0136981897
 H          4.5789582265       -4.5385774614       -1.5349976719
 H          4.6998043934       -2.7866251848       -1.6711538988
 H          3.3139872851       -3.6264973240       -2.3639663788
 H          4.1936068759       -0.9724658422       -0.4721490971
 H          3.0258902862        1.1621586795       -0.4895753065
 H         -0.9179876008        3.0277421372       -1.8390527022
 H         -0.3835834162        5.4268105099       -2.0277624550
 H          1.3881334558        6.4182803661       -0.5987681193
 H          2.6124722316        5.0176636464        1.0126243929
  57
        -77.86219176
 C         -4.5061145070       -3.0103609297        0.0492211522
 C         -4.7020121642       -1.4926190137        0.1049129328
 C         -5.4038843442       -1.1488519140        1.4281032944
 C         -5.5930626721       -1.0816906991       -1.0778807654
 C         -3.3934447751       -0.7273727234        0.0282014431
 C         -3.4293303049        0.6773119402        0.0563514109
 C         -2.2831679498        1.4517174862       -0.0171518886
 C         -1.0633732560        0.8045260458       -0.1286914131
 C         -0.9944218556       -0.6170187942       -0.1139706852
 C         -2.1598877148       -1.3683817350       -0.0486899295
 C          0.3967561126       -0.9548257124       -0.1596920216
 C          1.0895521628       -2.1525827899       -0.1856270666
 C          2.4847385371       -2.1516868458       -0.2854165801
 C          3.2143782184       -3.4820984178       -0.2930824804
 C          4.7337599145       -3.3295449689       -0.4021259913
 C          2.9012761971       -4.2203025598        1.0182154914
 C          2.7276667435       -4.3155282580       -1.4891120992
 C          3.1560221381       -0.9288440110       -0.3825062688
 C          2.4867903348        0.2868470920       -0.3507944822
 C          1.1103881799        0.2758508835       -0.2081889478
 N          0.2138675657        1.3235227082       -0.1856930751
 C          0.5255805045        2.6645714662       -0.2271493684
 C         -0.1642447841        3.5261880115       -1.0765930126
 C          0.1332803439        4.8685144187       -1.1345955138
 C          1.1414412952        5.4008454838       -0.2891843677
 C          1.8208971588        4.5937585007        0.5758705431
 C          1.5488294735        3.2071828752        0.6588687940
 C          2.1132761796        2.4463028502        1.6638097136
 N          2.6198331770        1.8242683573        2.5045092622
 H         -3.9139988111       -3.3608626944        0.8916562825
 H         -5.4758099307       -3.5012857603        0.0956770497
 H         -4.0230187757       -3.3101230002       -0.8782546759
 H         -5.6324753185       -0.0890916296        1.4946574009
 H         -4.7682511766       -1.4140212240        2.2704386310
 H         -6.3354997249       -1.7040675444        1.5097755557
 H         -5.8238537936       -0.0206703950       -1.0531373471
 H         -5.0935397077       -1.3007445128       -2.0193049355
 H         -6.5290285755       -1.6338975737       -1.0461803269
 H         -4.3760152455        1.1841864825        0.1468456071
 H         -2.3463336249        2.5278327539        0.0304569499
 H         -2.0843623270       -2.4420811442       -0.0490912466
 H          0.5398697060       -3.0782858976       -0.1312832699
 H          5.1974351317       -4.3136095613       -0.3864573111
 H          5.1295589705       -2.7587028194        0.4343277184
 H          5.0139403412       -2.8423032221       -1.3332535721
 H          1.8381527738       -4.4209793039        1.1200371549
 H          3.2176059396       -3.6204514827        1.8690687928
 H          3.4317751327       -5.1692020735        1.0461233387
 H          3.2552230390       -5.2663510247       -1.5180480548
 H          2.9197659868       -3.7852128037       -2.4197893600
 H          1.6624742494       -4.5201356697       -1.4267209631
 H          4.2262856254       -0.9058978715       -0.4848830195
 H          3.0356981645        1.2102097938       -0.4397220183
 H         -0.8942087826        3.1019290252       -1.7518192432
 H         -0.3724009027        5.5104519933       -1.8365424658
 H          1.3686951839        6.4545075591       -0.3401597573
 H          2.5770731007        4.9978712264        1.2334248142
  57
        -77.86210971
 C         -4.8344480242       -2.3280016471       -1.0703206818
 C         -4.7045049863       -1.4912201590        0.2119108845
 C         -4.6162716096       -2.4199968888        1.4326640042
 C         -5.9673887306       -0.6376919229        0.3543937193
 C         -3.4346679122       -0.6635748180        0.1240424213
 C         -3.4483009991        0.7344777616        0.1515012358
 C         -2.2835926440        1.4879457326        0.0489357291
 C         -1.0801756842        0.8217796431       -0.0887650854
 C         -1.0316975212       -0.5996821555       -0.0681909587
 C         -2.2083705780       -1.3264193029        0.0204470845
 C          0.3526001995       -0.9586909678       -0.1380540313
 C          1.0219097433       -2.1727679347       -0.1714354761
 C          2.4095297666       -2.1943708602       -0.2928643842
 C          3.2002184140       -3.4886146399       -0.3219248422
 C          4.1521199516       -3.5063437086        0.8837978092
 C          2.3091901730       -4.7316859396       -0.2480070042
 C          4.0108511317       -3.5587854901       -1.6251818814
 C          3.1027126963       -0.9760983898       -0.3963228895
 C          2.4619003144        0.2488859906       -0.3627568306
 C          1.0843739999        0.2620422480       -0.2055643637
 N          0.2060075775        1.3214239681       -0.1794184231
 C          0.5288507126        2.6579168825       -0.2653668196
 C         -0.1755129715        3.4982864636       -1.1245723882
 C          0.1347660517        4.8341928040       -1.2379482950
 C          1.1729075264        5.3830111755       -0.4416931625
 C          1.8670775868        4.5980248287        0.4323294288
 C          1.5806661047        3.2190135160        0.5726233982
 C          2.1647555135        2.4896119676        1.5899899039
 N          2.6905664152        1.8856837879        2.4325347938
 H         -3.9873798370       -2.9963726748       -1.1977377182
 H         -5.7405409795       -2.9285405071       -1.0327699342
 H         -4.8879079453       -1.6760664076       -1.9399093598
 H         -4.4865137338       -1.8349671958        2.3407139112
 H         -3.7822994839       -3.1112078516        1.3511686207
 H         -5.5308964135       -3.0015051595        1.5240034240
 H         -5.9347503989       -0.0376884164        1.2607519140
 H         -6.0984831242        0.0170563028       -0.5040880626
 H         -6.8373894587       -1.2881063969        0.4151647515
 H         -4.3775256873        1.2655254013        0.2614111056
 H         -2.3282048214        2.5651496879        0.0952722778
 H         -2.1602217967       -2.4032578129        0.0166765193
 H          0.4502161128       -3.0825059007       -0.1069579960
 H          4.7316652649       -4.4268599250        0.8873139365
 H          3.5851208381       -3.4498433033        1.8104482639
 H          4.8408920586       -2.6672588913        0.8574082724
 H          1.6242979343       -4.7740339432       -1.0920895298
 H          1.7393064564       -4.7515741699        0.6780389313
 H          2.9312147835       -5.6237774135       -0.2763418551
 H          4.5591485280       -4.4973691026       -1.6688448788
 H          4.7264861146       -2.7450077711       -1.6942789611
 H          3.3463537785       -3.5059994469       -2.4849953293
 H          4.1740078313       -0.9818550624       -0.5071895557
 H          3.0256569013        1.1621551826       -0.4601526685
 H         -0.9288970620        3.0597056209       -1.7640179099
 H         -0.3840544403        5.4568668141       -1.9477293199
 H          1.4115648511        6.4310625708       -0.5366468230
 H          2.6462224008        5.0155523388        1.0536738615
  57
        -77.86202687
 C         -5.9500884926       -0.6627079773        0.2861997385
 C         -4.6737198854       -1.5079227924        0.2681954874
 C         -4.7610403589       -2.4783967613       -0.9200920051
 C         -4.6057995916       -2.3014001489        1.5823040309
 C         -3.4114603498       -0.6753526684        0.1321248812
 C         -3.4387082981        0.7229178156        0.0726598340
 C         -2.2814316162        1.4800142049       -0.0647952302
 C         -1.0695211748        0.8188873023       -0.1526243511
 C         -1.0083942860       -0.5991283296       -0.0448830169
 C         -2.1784974638       -1.3302506192        0.0831591368
 C          0.3792299687       -0.9489879083       -0.0903622110
 C          1.0640042304       -2.1509924503       -0.0479156125
 C          2.4561127431       -2.1675984195       -0.1735146655
 C          3.1765055298       -3.5015231770       -0.1100321575
 C          2.8845820150       -4.1527739540        1.2507783020
 C          2.6605078342       -4.4053243331       -1.2406244936
 C          4.6941026657       -3.3694100531       -0.2585878977
 C          3.1341617724       -0.9577809622       -0.3631265186
 C          2.4742190979        0.2619387766       -0.3999109813
 C          1.0997711426        0.2715194875       -0.2336451311
 N          0.2109317562        1.3236154626       -0.2667732984
 C          0.5266312091        2.6573329250       -0.4100962301
 C         -0.1770106953        3.4572762614       -1.3068244226
 C          0.1205893742        4.7916902746       -1.4663406949
 C          1.1444515480        5.3802417164       -0.6802856239
 C          1.8392721394        4.6349251363        0.2273174296
 C          1.5669669914        3.2585254597        0.4142585389
 C          2.1527046697        2.5695969694        1.4584959520
 N          2.6758261775        2.0054351182        2.3297201008
 H         -6.0529381702       -0.0889149330       -0.6319980134
 H         -6.8151312918       -1.3169432369        0.3716504691
 H         -5.9598565181        0.0162421124        1.1357221171
 H         -3.9148661988       -3.1593610034       -0.9429974056
 H         -4.7790467860       -1.9253391321       -1.8569185908
 H         -5.6711236658       -3.0700491381       -0.8507521863
 H         -4.5182139296       -1.6214919904        2.4270597113
 H         -5.5098071541       -2.8933620747        1.7069919179
 H         -3.7531756972       -2.9744361641        1.5981294492
 H         -4.3743850160        1.2495849777        0.1411744761
 H         -2.3365859436        2.5575061895       -0.0844999532
 H         -2.1195647228       -2.4043916957        0.1515634686
 H          0.5092886981       -3.0666715653        0.0782367504
 H          3.4081874208       -5.1030117416        1.3282358324
 H          1.8225939097       -4.3371711043        1.3858329154
 H          3.2227418584       -3.5038363482        2.0555862576
 H          2.8415394754       -3.9388061927       -2.2066952426
 H          1.5946148585       -4.5931610866       -1.1473033100
 H          3.1777370791       -5.3617970484       -1.2164355337
 H          5.1507353958       -4.3546107818       -0.1911255790
 H          5.1111564300       -2.7511877206        0.5324466004
 H          4.9586301563       -2.9432636461       -1.2234452087
 H          4.2024227063       -0.9508057122       -0.4861747368
 H          3.0273995759        1.1732374749       -0.5588532825
 H         -0.9198043937        2.9875076035       -1.9364140324
 H         -0.3982370567        5.3827334394       -2.2026087813
 H          1.3717076223        6.4271593182       -0.8096799970
 H          2.6078480216        5.0832895868        0.8402854433
  57
        -77.86183948
 C         -5.4626056051       -0.9342847329        1.4019566724
 C         -4.6968439270       -1.4742317752        0.1840949097
 C         -5.5310937194       -1.2642544961       -1.0887384790
 C         -4.4929125439       -2.9785811573        0.3846668626
 C         -3.3884555310       -0.7183813335        0.0397106124
 C         -3.4234551287        0.6827672318       -0.0574115834
 C         -2.2750536033        1.4486174838       -0.1765101657
 C         -1.0546865617        0.7945616352       -0.2174454856
 C         -0.9889275520       -0.6223914413       -0.1067081168
 C         -2.1555688476       -1.3651407535        0.0119290618
 C          0.4020097045       -0.9644390331       -0.1109419417
 C          1.0906941454       -2.1640260735       -0.0645972180
 C          2.4878089844       -2.1710469940       -0.1243952719
 C          3.2161136447       -3.5017757051       -0.0790570828
 C          2.9008574027       -4.2648515445       -1.3755735516
 C          4.7345373281       -3.3440536039        0.0370651902
 C          2.7328703490       -4.3155966719        1.1309025375
 C          3.1651167411       -0.9552198000       -0.2661554905
 C          2.4993984014        0.2613479907       -0.3206206713
 C          1.1194145758        0.2606290754       -0.2142815310
 N          0.2250578070        1.3079757803       -0.2785926647
 C          0.5369715106        2.6453288918       -0.3885019541
 C         -0.1321191068        3.4557231001       -1.3022242516
 C          0.1511734741        4.7977885943       -1.4156236524
 C          1.1209558217        5.3840240473       -0.5609856646
 C          1.7817620417        4.6277242926        0.3625487873
 C          1.5266493726        3.2421171067        0.5009434232
 C          2.0718011988        2.5370454719        1.5558277738
 N          2.5630270807        1.9594902086        2.4371800367
 H         -5.7414097202        0.1071512389        1.2718471793
 H         -6.3725145628       -1.5105855980        1.5533260110
 H         -4.8497008350       -1.0146410335        2.2972647277
 H         -4.9990859261       -1.6512150736       -1.9554014185
 H         -5.7361218627       -0.2106982196       -1.2574703786
 H         -6.4800162236       -1.7888149572       -1.0027930000
 H         -4.0015618422       -3.4286993876       -0.4748441650
 H         -3.9049712960       -3.1761850211        1.2782246763
 H         -5.4602367471       -3.4614547819        0.5057557482
 H         -4.3706571393        1.1955465069       -0.0256873552
 H         -2.3377346423        2.5251408003       -0.2131989173
 H         -2.0814553228       -2.4360105336        0.0909708237
 H          0.5353240193       -3.0845448937        0.0117848474
 H          3.4004673061       -5.2309483909       -1.3705307352
 H          3.2479655227       -3.6998505732       -2.2382032613
 H          1.8320736673       -4.4301598025       -1.4845931654
 H          4.9962964401       -2.7645739283        0.9191332446
 H          5.1517679293       -2.8623354845       -0.8437455203
 H          5.1947890811       -4.3257277833        0.1272535582
 H          1.6821095390       -4.5773600661        1.0488283618
 H          2.8743751677       -3.7459514093        2.0465851890
 H          3.3025344133       -5.2390720960        1.2066613513
 H          4.2379681831       -0.9398402300       -0.3385651835
 H          3.0532580130        1.1774446645       -0.4463889375
 H         -0.8341359518        2.9896107352       -1.9796401975
 H         -0.3373103248        5.3983038380       -2.1648863843
 H          1.3343758321        6.4379112621       -0.6518658880
 H          2.5093289503        5.0733442269        1.0256010279
  57
        -77.86145268
 C         -4.5065249378       -3.0046937844        0.3333271162
 C         -4.7041766423       -1.4862218792        0.3275808698
 C         -5.3812171989       -1.0883026622        1.6479818027
 C         -5.6181305238       -1.1269895126       -0.8540389189
 C         -3.3990858017       -0.7236924631        0.1887865804
 C         -3.4334106078        0.6808297911        0.1779335009
 C         -2.2902496952        1.4516690984        0.0422391840
 C         -1.0754578410        0.8005799866       -0.0964329422
 C         -1.0069249828       -0.6194679912       -0.0436988540
 C         -2.1687471337       -1.3675173525        0.0863862772
 C          0.3814038357       -0.9613905520       -0.1304112463
 C          1.0686168605       -2.1633440522       -0.1485076799
 C          2.4589583832       -2.1697659281       -0.2838535461
 C          3.2128002638       -3.4868326348       -0.3226369171
 C          2.5710466866       -4.5193368836        0.6151835038
 C          3.1568966458       -4.0092645857       -1.7675375111
 C          4.6787163296       -3.3201178393        0.0946396117
 C          3.1270005050       -0.9500808443       -0.4517449036
 C          2.4640886713        0.2672951625       -0.4376851121
 C          1.0936216122        0.2656982933       -0.2395055795
 N          0.2002012738        1.3157786624       -0.2161291632
 C          0.5121454104        2.6529124177       -0.3154446542
 C         -0.2154672980        3.4903928343       -1.1577905208
 C          0.0847044927        4.8278556845       -1.2764846470
 C          1.1393926072        5.3818301015       -0.5041815788
 C          1.8582134330        4.6004083662        0.3521918750
 C          1.5810399059        3.2201651932        0.5002425762
 C          2.1869473483        2.4960887045        1.5075563369
 N          2.7348061955        1.9058710999        2.3460143855
 H         -3.8926553084       -3.3168643261        1.1751728031
 H         -5.4736636215       -3.4943556681        0.4252780441
 H         -4.0464292013       -3.3446435171       -0.5917210321
 H         -5.6205281720       -0.0290816664        1.6707664384
 H         -4.7253750533       -1.3078186230        2.4878647254
 H         -6.3049804081       -1.6482952894        1.7751305182
 H         -5.8441875097       -0.0647211416       -0.8738337597
 H         -5.1383977618       -1.3915715648       -1.7941262312
 H         -6.5554612014       -1.6735496373       -0.7787571253
 H         -4.3763712462        1.1911400583        0.2867747800
 H         -2.3518698728        2.5287153869        0.0635586598
 H         -2.0927778892       -2.4407638640        0.1148122503
 H          0.5141138567       -3.0822390255       -0.0604495884
 H          3.2079855364       -5.3981719673        0.6850639639
 H          1.6011565973       -4.8480626700        0.2523841491
 H          2.4497418403       -4.1022946625        1.6124143833
 H          3.6278803219       -3.3010218303       -2.4457445248
 H          2.1262814789       -4.1516888314       -2.0849883969
 H          3.6785511033       -4.9607756679       -1.8410006571
 H          5.1451633720       -4.2977791908        0.1924422660
 H          4.7470461463       -2.8094864967        1.0522105110
 H          5.2456306641       -2.7606709052       -0.6442844969
 H          4.1924884431       -0.9363813750       -0.5982568224
 H          3.0107003617        1.1849935473       -0.5816151901
 H         -0.9795072884        3.0484118064       -1.7820039549
 H         -0.4531869161        5.4488002630       -1.9733968022
 H          1.3711160212        6.4310153059       -0.6055894637
 H          2.6506760972        5.0212391230        0.9542639991
  57
        -77.86131855
 C         -4.9579402320       -1.6856685916        1.6787247012
 C         -4.6929965436       -1.5036397500        0.1753316828
 C         -5.8864438071       -0.7805476803       -0.4623701703
 C         -4.5717132104       -2.8833156160       -0.4858175199
 C         -3.4091076022       -0.7043595067        0.0366199761
 C         -3.4399983507        0.6977475197        0.0094985971
 C         -2.2874158332        1.4637991728       -0.0899592959
 C         -1.0698303113        0.8100481683       -0.1675081510
 C         -1.0045245061       -0.6091274664       -0.0798608983
 C         -2.1729819165       -1.3503406873        0.0136190033
 C          0.3856592305       -0.9526943894       -0.1050329535
 C          1.0762342346       -2.1517912917       -0.0712302184
 C          2.4701835310       -2.1596038004       -0.1810300184
 C          3.1977852686       -3.4901854406       -0.1297570309
 C          2.6861226664       -4.3892666547       -1.2659243364
 C          4.7143633006       -3.3479259844       -0.2801038540
 C          2.9114668871       -4.1523383552        1.2269014685
 C          3.1442837055       -0.9442078820       -0.3427503827
 C          2.4784863366        0.2728110011       -0.3671796162
 C          1.1024421330        0.2725626885       -0.2180094050
 N          0.2095625829        1.3222261174       -0.2480334608
 C          0.5271467822        2.6583265439       -0.3549470420
 C         -0.1602737116        3.4810108668       -1.2439609000
 C          0.1468837656        4.8165294039       -1.3712789615
 C          1.1646448590        5.3827308121       -0.5605236364
 C          1.8424550379        4.6151064352        0.3412835642
 C          1.5580906376        3.2374167479        0.4977832143
 C          2.1216592859        2.5266585949        1.5394444475
 N          2.6275843331        1.9444563000        2.4092709243
 H         -5.0668132415       -0.7193276955        2.1661134589
 H         -5.8703231629       -2.2577202886        1.8316078882
 H         -4.1323320519       -2.2135329469        2.1510973729
 H         -5.6592342250       -0.4972200471       -1.4877240603
 H         -6.1630482361        0.1098101557        0.0953263758
 H         -6.7515177858       -1.4397878905       -0.4726343602
 H         -4.2256177261       -2.7866771020       -1.5126278069
 H         -3.8883024879       -3.5314070522        0.0558568167
 H         -5.5434199151       -3.3718569665       -0.4961661915
 H         -4.3810864092        1.2157070198        0.0751351321
 H         -2.3481223877        2.5411524278       -0.0888248329
 H         -2.1035693104       -2.4229977180        0.0753660305
 H          0.5251760952       -3.0722468916        0.0350484317
 H          3.2143295800       -5.3399765209       -1.2531193965
 H          2.8570192135       -3.9119643333       -2.2286184566
 H          1.6230333267       -4.5906453462       -1.1690990303
 H          5.1305077678       -2.7382801788        0.5182493637
 H          4.9737989108       -2.9072367711       -1.2400251836
 H          5.1764125111       -4.3315877441       -0.2270000420
 H          3.4406522944       -5.1000155671        1.2974367008
 H          1.8505190843       -4.3431793973        1.3614504964
 H          3.2468938548       -3.5068545818        2.0356619735
 H          4.2138047835       -0.9294835122       -0.4535951042
 H          3.0286473887        1.1893618069       -0.5053200458
 H         -0.8962086738        3.0286892802       -1.8939721626
 H         -0.3584574371        5.4259544393       -2.1019726590
 H          1.4010233063        6.4303062899       -0.6668294208
 H          2.6057659733        5.0462140156        0.9728869920
  57
        -77.86111320
 C         -4.5963859241       -2.8272267415       -0.6539203809
 C         -4.7272553011       -1.4825800413        0.0738845674
 C         -5.0570459496       -1.7398062941        1.5527980231
 C         -5.8824639283       -0.7075908873       -0.5746322022
 C         -3.4310404745       -0.6926611680        0.0233456979
 C         -3.4488446436        0.7063817130        0.1126861776
 C         -2.2901383771        1.4684732840        0.0594875277
 C         -1.0805829850        0.8124167516       -0.0859932268
 C         -1.0260361210       -0.6089247399       -0.0861283119
 C         -2.2002378474       -1.3460948126       -0.0449147979
 C          0.3611814667       -0.9606900672       -0.1447648846
 C          1.0394233615       -2.1698189803       -0.1589500037
 C          2.4278859061       -2.1827167636       -0.2801181389
 C          3.2248541680       -3.4736284341       -0.2886997766
 C          3.7836082133       -3.6902797380       -1.7036487038
 C          4.3831016542       -3.3696673349        0.7150719835
 C          2.3784415486       -4.6915615108        0.0936138569
 C          3.1076832270       -0.9632050816       -0.4336762389
 C          2.4592169328        0.2580137117       -0.3988393021
 C          1.0858380858        0.2633932058       -0.2104584376
 N          0.2030643621        1.3197234736       -0.1643549408
 C          0.5234435826        2.6574850043       -0.2075398916
 C         -0.1979543472        3.5314263968       -1.0189950955
 C          0.1003106629        4.8729291970       -1.0757202999
 C          1.1465207107        5.3938315907       -0.2697830838
 C          1.8614925358        4.5747620597        0.5545373380
 C          1.5885139997        3.1884458991        0.6362338116
 C          2.1990696211        2.4193278991        1.6074178827
 N          2.7439173690        1.7955525775        2.4232498521
 H         -3.9457273601       -3.5131818839       -0.1180550174
 H         -5.5735919223       -3.2987545398       -0.7313601892
 H         -4.2054646994       -2.6823253495       -1.6589252554
 H         -5.1705932824       -0.7995955103        2.0877806160
 H         -4.2600504523       -2.3076532411        2.0280630793
 H         -5.9839331470       -2.3027688937        1.6369460443
 H         -6.1748978191        0.1531602966        0.0200642168
 H         -5.6037110206       -0.3679477871       -1.5697286248
 H         -6.7535458710       -1.3527224194       -0.6638908556
 H         -4.3847836922        1.2248500617        0.2300962412
 H         -2.3410253171        2.5430164347        0.1441914888
 H         -2.1397777926       -2.4208082401       -0.0652006056
 H          0.4753405465       -3.0829404644       -0.0768076068
 H          4.3741082917       -4.6031161239       -1.7351017285
 H          4.4160292581       -2.8598485175       -2.0058305934
 H          2.9702187820       -3.7784724575       -2.4210419115
 H          4.0039987810       -3.1117278013        1.7012648942
 H          5.1049718625       -2.6145755149        0.4199256231
 H          4.9026773722       -4.3229144986        0.7815729781
 H          3.0122164479       -5.5748409212        0.1331552038
 H          1.5967076160       -4.8784046130       -0.6388093993
 H          1.9266272757       -4.5557228291        1.0736437445
 H          4.1743910962       -0.9636700135       -0.5808179820
 H          3.0137849355        1.1740775272       -0.5207307530
 H         -0.9564519500        3.1163947706       -1.6678957855
 H         -0.4338171674        5.5234512721       -1.7481589204
 H          1.3746218764        6.4473421450       -0.3189165542
 H          2.6479682277        4.9697878365        1.1814335743
