65
 energy: -105.567976612302 gnorm: 0.000073651139 xtb: 6.7.1 (edcfbbe)
C           -6.82542659316150        0.93787855920445        2.01540055031479
C           -5.46193064266270        0.76602130955642        1.34502451171638
C           -4.39401378964143        0.66289286978235        2.45443315960746
C           -5.11611027220011        1.92673525945588        0.42850519982139
C           -5.78212562304407        3.14224432150232        0.41410604151049
C           -5.41325580703203        4.14628586092805       -0.46685764056485
C           -4.38491806754912        3.93989617085642       -1.37047634273936
C           -3.70730815636301        2.73533448870746       -1.37581889796795
C           -4.04871693846679        1.74554792453807       -0.45985354503251
N           -3.40622046885266        0.49184494121354       -0.46697433695849
C           -2.04098950785922        0.33548418108701       -0.37285566048561
C           -1.18892714039930        1.46005425773239       -0.28719937570004
C            0.16263717287569        1.29441744938061       -0.19604968370625
C            0.74807104076996        0.01542527307903       -0.16496547758587
C           -0.08918053138352       -1.12583375598147       -0.17615310228792
C           -1.46767539568035       -0.93140263635360       -0.26470675140267
C            0.50672159068749       -2.44332455792013       -0.09609173428420
C           -0.24732908955924       -3.62563847767942       -0.09373520278010
C            0.35241554797891       -4.86143359798271       -0.02143040849503
C            1.74098968972439       -4.96965451782983        0.05122367949131
C            2.50966760855462       -3.83403338129047        0.04943815289309
C            1.91435504519773       -2.56325970053886       -0.02344095491520
C            2.75138866517215       -1.40402994886519       -0.02145459677106
N            4.07595015971078       -1.51589648203560        0.04684557652612
C            4.86828302499965       -0.45306539327068        0.05133508902520
C            6.25899260178466       -0.56465562363285        0.12539227853680
C            7.06534760844650        0.56997723285369        0.12925954523721
C            8.46480063715004        0.44032106687021        0.20389916164913
N            9.60621125659386        0.32172190014938        0.26543609620601
C            6.48319227429157        1.85425118439197        0.05907259456615
C            7.30620045970745        2.99556859400819        0.06386113587758
N            7.96762219071465        3.93561551775280        0.06672841091394
C            5.09908399428577        1.99014978388464       -0.01454773277092
C            4.26958605840291        0.86646494462883       -0.01906456294239
N            2.94852235074873        0.96654424349835       -0.08119767049669
C            2.16483633866113       -0.11050500078628       -0.08827998649115
C           -4.32184977355715       -0.57816818489840       -0.41768320303810
C           -4.22601072785446       -1.65106481424083       -1.29818387090020
C           -5.16025574460551       -2.66845913893667       -1.24677001428470
C           -6.19971167066544       -2.60196975415608       -0.33474671465872
C           -6.32231932285824       -1.50782519528724        0.50653213776121
C           -5.39576273029934       -0.47717796712593        0.47534970707599
H           -7.02979223372378        0.09390808267382        2.66887196012242
H           -7.61845694307193        1.01593282714539        1.27520301980761
H           -6.82717870485380        1.83103959316102        2.63446597007653
H           -3.39474190814423        0.53612840081316        2.04685951832293
H           -4.40376607527049        1.56703401472914        3.05918779618313
H           -4.61173691598165       -0.18816168077960        3.09597909945228
H           -6.60094354047033        3.32167640735183        1.09085917777144
H           -5.94423202116137        5.08615048354798       -0.45791571083290
H           -4.11761686998773        4.70874568297723       -2.07943158555337
H           -2.93241041315216        2.54787540541423       -2.10382897275579
H           -1.60219982078220        2.45468446415063       -0.26260154717228
H            0.81850797953045        2.14908860859672       -0.13370828869346
H           -2.11687978016126       -1.78765481558086       -0.22523480916407
H           -1.32293829878913       -3.58152701710049       -0.14736340303642
H           -0.25564316760772       -5.75376126655049       -0.02048688468676
H            2.20744538570178       -5.94172418031596        0.10791838396074
H            3.58659109282783       -3.88371962936795        0.10397258257587
H            6.70158850784527       -1.54723343981950        0.17885257908810
H            4.65109043453840        2.97019541952231       -0.06951105989366
H           -3.43840772188368       -1.66978569768794       -2.03646306707370
H           -5.08290090757920       -3.50224248705422       -1.92798162107995
H           -6.93020563354914       -3.39546514974812       -0.28890454364598
H           -7.15515557531969       -1.46873618389683        1.18871774547757
