65
 energy: -105.573330752553 gnorm: 0.000068466251 xtb: 6.7.1 (edcfbbe)
C           -7.02579205676011        2.09815734024884       -0.42026306954792
C           -6.31318075483843        0.77078544424037       -0.09155749516882
C           -7.35244314960273       -0.33439067832531        0.18195664959755
C           -5.47317190578376        0.96694684215726        1.15228652306357
C           -6.08270100439343        1.32907835560543        2.34618345649212
C           -5.36036040077688        1.51049599054393        3.51153016990265
C           -3.98623546317304        1.32000906833599        3.50213305770145
C           -3.35282981068493        0.96346253334747        2.33314105092959
C           -4.07996883473717        0.79220633006804        1.14588549159936
N           -3.41631905749641        0.44429629296493       -0.01248119798337
C           -1.99816668270416        0.30335693116151        0.02136610645786
C           -1.18656955935685        1.44137376305796       -0.07454241167838
C            0.17436925840521        1.29239024756252       -0.05665998333824
C            0.76348126737361        0.02082097952920        0.05169136658259
C           -0.05068636094437       -1.13249930196105        0.15691527923291
C           -1.44003094068042       -0.95181599906389        0.13980422973523
C            0.56636186712422       -2.43508987312336        0.26864570078253
C           -0.17265622912573       -3.62232033344896        0.38248202808151
C            0.44605086930091       -4.84630267662991        0.48038436075642
C            1.83790242244177       -4.93762429625593        0.46910363395279
C            2.59072073791119       -3.79607542636847        0.36072383474391
C            1.97676591541504       -2.53730314347334        0.25975593717696
C            2.79616471776545       -1.36799345333220        0.14535418233048
N            4.12312521098430       -1.47193571487094        0.12657421085042
C            4.89417609354744       -0.39288140219283        0.01862733353076
C            6.28734590092813       -0.48989833233862       -0.01367326505045
C            7.07657259858396        0.65162718927379       -0.12448926457144
C            8.47862531876453        0.54014130906574       -0.16019756859943
N            9.62292477468765        0.43564474909700       -0.18985867871410
C            6.47190345527110        1.92573713667226       -0.20303966893967
C            7.27820861451968        3.07472372262960       -0.30911427843417
N            7.92533272459792        4.02056913688293       -0.39506506975861
C            5.08625455791089        2.04506878781470       -0.17564092550671
C            4.27418836390171        0.91105291600062       -0.07052666259628
N            2.94866354703474        1.00207368018723       -0.05503077686817
C            2.18845358374328       -0.08976750869546        0.04700416166778
C           -4.07800929561351        0.23894119680167       -1.20603447407553
C           -3.34601207833189       -0.09650651978332       -2.35470282337805
C           -3.98149377804973       -0.32262999054554       -3.55467398330517
C           -5.36216571718670       -0.21409109169588       -3.63531470542069
C           -6.08605100085095        0.13335534892902       -2.50930747411870
C           -5.47399930821995        0.36890428307907       -1.28541555740023
H           -7.64889275382041        1.99190748249835       -1.30324159932600
H           -6.29138751446637        2.87892471049029       -0.60944610897183
H           -7.65567675055348        2.41172660023296        0.40678239643881
H           -7.99332588575394       -0.48297779009531       -0.68172566268998
H           -6.84861918095661       -1.27335276003881        0.40298763117609
H           -7.97942866777716       -0.07282398567115        1.02885569547732
H           -7.15099242259555        1.47538573225516        2.37368296224736
H           -5.86552571499500        1.79342814048289        4.42221668796331
H           -3.40964365290404        1.44914894137678        4.40537609655653
H           -2.28499951818593        0.81210538853879        2.32916424955290
H           -1.64004176232746        2.41645928056783       -0.16405671338366
H            0.83150376066938        2.14483707042812       -0.13203093799058
H           -2.10373917285564       -1.79810080427353        0.21262314311798
H           -1.24984971474449       -3.58905240736359        0.39518404235099
H           -0.14908829306290       -5.74322203151512        0.56668419096840
H            2.31881376588594       -5.90117011402489        0.54638654696526
H            3.66944677197205       -3.83204963903536        0.34985425974804
H            6.74546548081588       -1.46484851294737        0.04925642841435
H            4.62166629479900        3.01703307662195       -0.23755560466472
H           -2.27202394381046       -0.17549221373317       -2.29707760525348
H           -3.40096258788982       -0.58174810967244       -4.42693204320002
H           -5.86969992997466       -0.39222605023783       -4.57086971758786
H           -7.15739094504633        0.22493284718287       -2.59345764171885
