65
 energy: -105.610442944606 gnorm: 0.000165140445 xtb: 6.7.1 (edcfbbe)
C           -6.24685292521954       -0.77201991560620       -0.00011220177908
C           -5.33347993489083        0.46856997842191        0.00007681470399
C           -6.18281981090667        1.75339972027699        0.00027195183303
C           -4.48383207087691        0.44574582404863       -1.25740443447084
C           -5.10036485072090        0.47180302398380       -2.50109808180328
C           -4.37865954035387        0.44918757478535       -3.68082939454910
C           -2.99733379791740        0.39801483510086       -3.62793685159877
C           -2.35832754036445        0.37125418568925       -2.40568588397054
C           -3.08658456230217        0.39492138010909       -1.21271276123748
N           -2.41482676468808        0.36325285418311        0.00005099318404
C           -0.99324307578913        0.32952499968291        0.00003069655618
C           -0.26784805937451        1.52236337321344        0.00011691134231
C            1.10540850058191        1.47206372596546        0.00010262569549
C            1.77863556948169        0.24501447482363       -0.00003716158392
C            1.05754008414883       -0.96737586843115       -0.00013359742671
C           -0.33835620426796       -0.88931723923318       -0.00007456719858
C            1.76681850309474       -2.24049392536994       -0.00026185924914
C            1.10137402516665       -3.47129393772741       -0.00035195311024
C            1.79517629047793       -4.66342425411044       -0.00048643266439
C            3.18563777052770       -4.67194055879903       -0.00045776346560
C            3.86839001895768       -3.47725307974147       -0.00032659334955
C            3.17742710303482       -2.26059101345142       -0.00026804914519
C            3.92188380568846       -1.02333260360135       -0.00016105150168
N            5.24008094144295       -1.06599935392643       -0.00015393723391
C            5.91257066229311        0.09468337321479       -0.00004310602156
C            7.32192100507440        0.08293712775827       -0.00002277085704
C            8.01661946602925        1.26954705802421        0.00009101680023
C            9.43123562484108        1.26729488994565        0.00008569489841
N           10.57770104512469        1.25430361783253        0.00006767667196
C            7.31973434738987        2.51674607181032        0.00018713009786
C            8.05823714996758        3.72317105689079        0.00017563533456
N            8.64686324797411        4.70713652889618        0.00062415956251
C            5.94506771657676        2.54727379071954        0.00022488816509
C            5.21641304373132        1.34094797310932        0.00008164963677
N            3.87526922073419        1.37612208829946        0.00007197530887
C            3.22225900451466        0.23043359361927       -0.00004993351766
C           -3.08657473021135        0.39456528307609        1.21282946963581
C           -2.35830782290271        0.37057241991597        2.40579012401962
C           -2.99730615503754        0.39695994012784        3.62805348201013
C           -4.37863341778400        0.44808143752652        3.68097032353774
C           -5.10034754697448        0.47103828604799        2.50125045469336
C           -4.48382273500647        0.44536319567042        1.25754542933073
H           -5.64350155236809       -1.67842924460928       -0.00025375242117
H           -6.88331754272868       -0.78396209434239       -0.88058987230357
H           -6.88331271212015       -0.78423377530420        0.88036521917915
H           -6.81836237062211        1.79844597860416       -0.87969424219917
H           -6.81832538041334        1.79820576797736        0.88027643275463
H           -5.53427668794391        2.62798324245023        0.00037806281286
H           -6.17765953576837        0.51043572360873       -2.55791274928686
H           -4.89162304767220        0.47067662542221       -4.63069241518858
H           -2.41354267281237        0.37929623881030       -4.53667271854643
H           -1.28010130603461        0.33284261598721       -2.37166516329257
H           -0.79160102413704        2.46599286915344        0.00020806065984
H            1.69632501816404        2.37421725413158        0.00020144688303
H           -0.94335527547761       -1.78129420559040       -0.00010504298751
H            0.02454962774561       -3.50584526716218       -0.00029502967875
H            1.25130340601643       -5.59622702000685       -0.00059242098268
H            3.72422925231515       -5.60713809676303       -0.00051886774847
H            4.94659703884085       -3.44673537645260       -0.00025907962616
H            7.83652624265777       -0.86584598928948       -0.00011028893388
H            5.40752619915621        3.48325975879710        0.00038790910863
H           -1.28008050353300        0.33220863362065        2.37174879553175
H           -2.41350726970142        0.37798868006542        4.53677935302891
H           -4.89159158363847        0.46927382604096        4.63084291977418
H           -6.17764292119739        0.50963192208631        2.55808072618538
