  120
       -173.89920088
 C         -2.6103613478       -5.8445331881       -1.1930192623
 C         -1.4565841108       -4.9316768190       -0.9026339762
 C         -0.1549050253       -5.4216375217       -0.8357236164
 C          0.9192395245       -4.5939855250       -0.5691673771
 C          0.6786849098       -3.2505127332       -0.3206497646
 C         -0.6367414247       -2.7263070993       -0.4051255244
 C         -1.6855234241       -3.5789321770       -0.7131834799
 C         -0.5382194991       -1.2961010246       -0.2369786582
 C         -1.4357790557       -0.2281966424       -0.1542672077
 C         -0.8482855838        1.0268421650       -0.1320661592
 C          0.5411840658        1.2977876903       -0.2332841230
 C          1.4391176687        0.2296597801       -0.1609001940
 C          0.8517551690       -1.0253133782       -0.1431320054
 N          1.5620148314       -2.2125500083       -0.1014253715
 C          2.8831611011       -2.2049008313        0.3188085331
 C          3.5173716433       -3.3377475996        0.8201052420
 C          4.8410843002       -3.3044581435        1.2130519996
 C          5.5798880707       -2.1326067656        1.1320176890
 C          7.0447667125       -2.0290839314        1.5204214099
 C          7.8484343496       -1.5291133564        0.3117806778
 C          7.1836205256       -1.0367863300        2.6837971293
 C          7.6296058275       -3.3731900865        1.9618364005
 C          4.9148792963       -0.9935488782        0.6948505866
 C          3.5842017150       -0.9948714194        0.3126745476
 C          2.9427557510        0.3251144463       -0.1158923145
 C          3.4671351761        1.4073375274        0.8014968659
 C          3.1358200779        1.6539374708        2.1135179652
 C          3.8023761324        2.6714147010        2.7847154413
 C          4.7907554444        3.4101835380        2.1540270846
 C          5.1296059395        3.1652277160        0.8320879532
 C          4.4591747193        2.1620155598        0.1539213510
 C          4.5393376989        1.7203584978       -1.2334005015
 C          5.3125660846        2.1713483316       -2.2894156430
 C          5.1306133412        1.5953461582       -3.5370329870
 C          4.1936104966        0.5917916087       -3.7281674019
 C          3.4210913568        0.1280378449       -2.6712201727
 C          3.5982242498        0.6982124104       -1.4310384705
 C          0.6394716695        2.7283539861       -0.3959212901
 C          1.6866804246        3.5801703601       -0.7127613198
 C          1.4583025469        4.9338362982       -0.8933846615
 C          2.6075729823        5.8497069547       -1.1914541570
 C          0.1579949068        5.4258236518       -0.8086807366
 C         -0.9148692173        4.5988264588       -0.5363962885
 C         -0.6745668473        3.2532318328       -0.2979143683
 N         -1.5569777135        2.2144607655       -0.0785033897
 C         -2.8801715860        2.2054021489        0.3346008416
 C         -3.5167846706        3.3362306015        0.8376812217
 C         -4.8452613380        3.3043637636        1.2140211208
 C         -5.5869197106        2.1357496752        1.1139114463
 C         -7.0594243574        2.0368934775        1.4735762211
 C         -7.6457757538        3.3800337593        1.9154894375
 C         -7.8406719701        1.5527967302        0.2440640251
 C         -7.2280109110        1.0346308272        2.6240928996
 C         -4.9185321914        0.9968326780        0.6817189445
 C         -3.5830238440        0.9965988572        0.3163662285
 C         -2.9392363899       -0.3250226650       -0.1035382760
 C         -3.4588158978       -1.3982989159        0.8275229395
 C         -3.1245491796       -1.6283874080        2.1418411280
 C         -3.7881422817       -2.6386131924        2.8267196408
 C         -4.7760236250       -3.3871414385        2.2068042570
 C         -5.1177907415       -3.1588074222        0.8826713367
 C         -4.4510914033       -2.1620771591        0.1913764000
 C         -4.5365706791       -1.7357527835       -1.2005352104
 C         -5.3121801429       -2.2000337819       -2.2489963454
 C         -5.1348968783       -1.6378315352       -3.5035772107
 C         -4.2002375635       -0.6348878665       -3.7087671593
 C         -3.4256868108       -0.1575344108       -2.6593314741
 C         -3.5981822046       -0.7137911703       -1.4122548059
 H         -3.3152452974       -5.3667050355       -1.8707257644
 H         -2.2705818267       -6.7775236212       -1.6362025753
 H         -3.1415398205       -6.0775793888       -0.2692911347
 H          0.0262668236       -6.4701045842       -1.0247537928
 H          1.9189301319       -4.9949272806       -0.6064258401
 H         -2.6811854623       -3.2004270554       -0.8415425058
 H          2.9617992689       -4.2522424236        0.9383792809
 H          5.2800987089       -4.2136807362        1.5895827182
 H          7.5128948331       -0.5466294690       -0.0086550445
 H          7.7353882056       -2.2157998601       -0.5246250060
 H          8.9045775172       -1.4632424446        0.5648948483
 H          8.2250833403       -0.9601453235        2.9891011023
 H          6.5972147810       -1.3733298541        3.5363307485
 H          6.8357683806       -0.0459553444        2.4037368405
 H          8.6816859529       -3.2481326055        2.2100688167
 H          7.5566789863       -4.1102345122        1.1654462201
 H          7.1193871410       -3.7505836383        2.8449643798
 H          5.4535408363       -0.0605031914        0.6543953498
 H          2.3710580795        1.0729005925        2.6079148228
 H          3.5501553067        2.8868551259        3.8125916705
 H          5.3014722700        4.1909835138        2.6988508228
 H          5.8963268594        3.7481192170        0.3429583103
 H          6.0398419245        2.9574000062       -2.1468275625
 H          5.7237233702        1.9363339081       -4.3731826105
 H          4.0643772925        0.1633534990       -4.7112112317
 H          2.6944869165       -0.6576003561       -2.8202298057
 H          2.6796802972        3.1992120476       -0.8547793176
 H          2.2724634488        6.7410662911       -1.7167935010
 H          3.0847598592        6.1618157152       -0.2614364552
 H          3.3555912824        5.3416152116       -1.7964668726
 H         -0.0227325415        6.4757284595       -0.9900078561
 H         -1.9138087128        5.0023293835       -0.5624307580
 H         -2.9597839915        4.2478697871        0.9700091631
 H         -5.2860078800        4.2121702134        1.5919426967
 H         -8.7041567544        3.2596774424        2.1377448054
 H         -7.1534789902        3.7446696353        2.8140237854
 H         -7.5494182357        4.1250180294        1.1290558233
 H         -7.7116264104        2.2498743602       -0.5811311425
 H         -7.4995136848        0.5744123861       -0.0825903742
 H         -8.9013574870        1.4845608298        0.4765097089
 H         -8.2754686085        0.9647022842        2.9097751783
 H         -6.8845294419        0.0435695905        2.3402469275
 H         -6.6541307432        1.3569212038        3.4903260433
 H         -5.4586907017        0.0651852953        0.6300486253
 H         -2.3603054048       -1.0396141290        2.6278639964
 H         -3.5336348181       -2.8409265486        3.8566986942
 H         -5.2840715536       -4.1623967376        2.7619726593
 H         -5.8841760327       -3.7490675023        0.4018646950
 H         -6.0372355191       -2.9860294310       -2.0953456045
 H         -5.7300246726       -1.9890564397       -4.3340324523
 H         -4.0744133936       -0.2175947087       -4.6970217042
 H         -2.7008241298        0.6275275951       -2.8194126999
