120
 energy: -173.815972263802 gnorm: 0.000155661837 xtb: 6.7.1 (edcfbbe)
C           -2.56592733766656       -5.87336333076284       -1.29175895694746
C           -1.43876162489875       -4.93898158318176       -0.97442205620385
C           -0.13233907012665       -5.43593176347418       -0.88271388491784
C            0.93503907487944       -4.60032898369060       -0.59584825777865
C            0.68318164057814       -3.26185384915967       -0.35306530802687
C           -0.63975017253613       -2.72252553295932       -0.46577675057520
C           -1.68382067228373       -3.59276767027240       -0.79180783560648
C           -0.54050969093000       -1.31627311337671       -0.29977978174961
C           -1.44569307728815       -0.21955578701129       -0.19954721384847
C           -0.84828139338052        1.03069759229985       -0.18355862083129
C            0.53917892878777        1.31552994127083       -0.30408928755435
C            1.44416701219486        0.21920099355626       -0.19770603079210
C            0.84672912461102       -1.03097965487781       -0.17781917301846
N            1.55251781346041       -2.21655377256236       -0.10485544863112
C            2.86216133036339       -2.21128639270341        0.32734493919043
C            3.48972384133835       -3.34888538399916        0.83879148442578
C            4.80785421841116       -3.31812462571059        1.24079034860395
C            5.55398843489002       -2.14676014549316        1.16069949804436
C            7.01739717243407       -2.05263508745631        1.55304284259739
C            7.82523521239752       -1.56007181268034        0.34371139323576
C            7.16112231782209       -1.05814944646683        2.71417061191610
C            7.59310697590607       -3.39954672773819        1.99795867680288
C            4.89649724231303       -1.00350437932952        0.72096946693754
C            3.56939897372367       -0.99917057860609        0.32863472079911
C            2.93691571461731        0.31533951553058       -0.10835618847145
C            3.43294018706598        1.40487324613138        0.82169240515344
C            3.06841079333494        1.64407311961491        2.12524041652914
C            3.70700258094021        2.66915425855466        2.81382603050469
C            4.70177267067051        3.41981599469419        2.20668862973790
C            5.07424131884706        3.18107392842419        0.89360399246987
C            4.43014147277785        2.17169960326758        0.19610390519624
C            4.54858024745400        1.73325445217294       -1.18631485651136
C            5.34060215398187        2.19438748540087       -2.22605765451123
C            5.19751672642235        1.61497282195608       -3.47628360894822
C            4.27913316139199        0.59829746855777       -3.69039126157091
C            3.48567260254830        0.12573217173355       -2.65160266316579
C            3.62657621016312        0.69799001037842       -1.40919216436529
C            0.63875171688214        2.72106527426841       -0.47559863852448
C            1.68345431668174        3.59002022349587       -0.80326867499659
C            1.43872168351831        4.93542939115333       -0.99178118318633
C            2.56607379469053        5.86878117775108       -1.31151286777191
C            0.13210521862910        5.43278735911208       -0.90440860504720
C           -0.93578117774702        4.59837086332259       -0.61606424411245
C           -0.68436529538109        3.26087756421047       -0.36746940025818
N           -1.55419609230942        2.21656521209136       -0.11666743170307
C           -2.86466061160132        2.21302728899798        0.31309864142798
C           -3.49313104298699        3.35262586165241        0.81893695990443
C           -4.81205935976690        3.32347807324623        1.21845267817145
C           -5.55812919416618        2.15187407025514        1.14132547070021
C           -7.02241281725581        2.05941509596729        1.53082127181704
C           -7.59869053764403        3.40788485595354        1.97025483441747
C           -7.82767936105468        1.56331217148887        0.32121836883645
C           -7.16908890560277        1.06862290026192        2.69473322219726
C           -4.89984121521888        1.00688255733266        0.70732082404160
C           -3.57194719640774        1.00094998795382        0.31770503651300
C           -2.93864734449552       -0.31533093348234       -0.11278849370681
C           -3.43659336848518       -1.40110062613481        0.82064138704409
C           -3.07475210822160       -1.63506090736248        2.12586452129534
C           -3.71478472370918       -2.65735277505031        2.81730272229341
C           -4.70834912444290       -3.41041662768566        2.21112892260163
C           -5.07812301530459       -3.17698973685458        0.89635323316732
C           -4.43255961392404       -2.17042931049502        0.19604821122806
C           -4.54813700657369       -1.73759327660612       -1.18828092629295
C           -5.33801499845130       -2.20292319100861       -2.22784974514513
C           -5.19234877077298       -1.62855331308705       -3.48007716325408
C           -4.27353798379610       -0.61271391211140       -3.69642305214776
C           -3.48221113788913       -0.13596772620171       -2.65788537514082
C           -3.62565313973774       -0.70319191034986       -1.41348355839788
H           -3.45110233333907       -5.32103361595955       -1.59758388698325
H           -2.28583045908792       -6.56373143100891       -2.08555934051606
H           -2.81843954041625       -6.46369829644771       -0.41004281418505
H            0.05046381261511       -6.48313852753569       -1.07074331087808
H            1.93676765654086       -4.99829789779413       -0.61613707060092
H           -2.67838955340124       -3.21689889489767       -0.93778881888365
H            2.92525172334521       -4.25739122252406        0.96069421069704
H            5.24202960788128       -4.22578185526996        1.62627841731716
H            7.49416472625204       -0.57765870630706        0.01859679318534
H            7.71181541212354       -2.24975717924657       -0.49018296541591
H            8.88081955678118       -1.49741310498845        0.59939230102504
H            8.20303575573332       -0.98746359841470        3.01904006917156
H            6.57295442397744       -1.38938470793181        3.56753308447051
H            6.81963026434091       -0.06585239035632        2.43199836790063
H            8.64562868374125       -3.28009995008811        2.24652363655482
H            7.51681376795761       -4.13814934231127        1.20331271938201
H            7.08052112597820       -3.77177087908436        2.88192723572341
H            5.43681822436100       -0.07109814802118        0.68678658807962
H            2.29956683855948        1.05324828604804        2.60155265670268
H            3.42718393581500        2.88062377921540        3.83528322663800
H            5.19045545788366        4.20570362787558        2.76433175455175
H            5.84605184822897        3.77281498884903        0.42340848579327
H            6.05218652200728        2.99147538545315       -2.06633182023822
H            5.80666945260799        1.96321276686740       -4.29784032000458
H            4.18009471098839        0.16681040724106       -4.67544387274488
H            2.77149328631783       -0.66760349028562       -2.81921218899897
H            2.67826075624953        3.21350406101000       -0.94593796353469
H            2.29061739906407        6.54810843699258       -2.11644790373734
H            2.80958185073310        6.47123845228904       -0.43551756465476
H            3.45516997744781        5.31509942822850       -1.60312992963385
H           -0.05027770091175        6.47923547464359       -1.09699778552313
H           -1.93747284502540        4.99625126111204       -0.63966714841318
H           -2.92882735665146        4.26155849182291        0.93843380606553
H           -5.24692276644941        4.23262828645365        1.59962411355490
H           -8.65174070639568        3.28949281444603        2.21708026271248
H           -7.08777442575043        3.78280297972369        2.85405267267533
H           -7.52062646699374        4.14392536509403        1.17340836588717
H           -7.71232442687007        2.25045503224487       -0.51450840553088
H           -7.49599915872165        0.57988096021988       -0.00018794522298
H           -8.88383233087483        1.50156920222792        0.57476010214185
H           -8.21167797567372        0.99942506057747        2.99762647788535
H           -6.82754442863480        0.07526516317322        2.41639031711824
H           -6.58254493498662        1.40221127336761        3.54829509115540
H           -5.44016040619471        0.07438800087623        0.67560307646205
H           -2.30685594391038       -1.04235565827986        2.60136769977328
H           -3.43705862090152       -2.86472039609933        3.84016209389197
H           -5.19820282033774       -4.19402285015729        2.77096089129099
H           -5.84898584391533       -3.77058947190876        0.42696163039690
H           -6.04990121378856       -2.99938145641128       -2.06636697389207
H           -5.79979108512927       -1.98010985297644       -4.30149265248912
H           -4.17249076923935       -0.18519535631410       -4.68299035443631
H           -2.76769540515981        0.65669415491050       -2.82723850558952
