120
 energy: -173.898563227815 gnorm: 0.000042041991 xtb: 6.7.1 (edcfbbe)
C           -2.13266826682028       -6.03320232619638       -1.32125724121769
C           -1.05370915736102       -5.03556941517665       -1.02168531602055
C            0.28268915002581       -5.41852558186974       -0.95192358419288
C            1.28654186036012       -4.50584696110178       -0.68673687416899
C            0.93821362751040       -3.18589752013234       -0.44109695080781
C           -0.41584250929326       -2.77067285043723       -0.52561893531293
C           -1.39152416350846       -3.70496936733431       -0.83507276959743
C           -0.43434840695177       -1.33715322296904       -0.35882542496105
C           -1.41628606029101       -0.34660285633140       -0.27451193527752
C           -0.93272298456241        0.95196922335594       -0.25846543509186
C            0.42937345536554        1.33578662945214       -0.36477407470080
C            1.41231419462538        0.34518911362065       -0.29165300757475
C            0.92897251425617       -0.95333973934551       -0.26891532024662
N            1.73378795543422       -2.07846770143392       -0.22531399226204
C            3.05177393413123       -1.96049063546360        0.18808579527217
C            3.77800107359615       -3.03891056766598        0.68988188775319
C            5.09467169860035       -2.89384077794317        1.06894029857852
C            5.74133123804291       -1.66543860324481        0.97499658421586
C            7.20434583212127       -1.54128079270614        1.36562940204919
C            7.74977072079044       -0.12493176993278        1.16317839785602
C            7.35783770258298       -1.90863302334907        2.84820700491846
C            8.03504892209690       -2.50177462859582        0.50313936108215
C            4.98610870173969       -0.58590628237124        0.54440457709671
C            3.65295148428717       -0.70008638564857        0.17506943097484
C            2.90343287726047        0.56373335670125       -0.24916564187358
C            3.33666879711045        1.68411163616142        0.67043052134595
C            2.98605211235157        1.90049963831081        1.98281034220978
C            3.56450383545690        2.96994870348161        2.65500303013259
C            4.48683030949555        3.79031425240238        2.02504849525218
C            4.84457000710160        3.57641762064888        0.70275759955858
C            4.26086011532598        2.52104755909400        0.02373970435196
C            4.37633071468789        2.09079347548217       -1.36456314720563
C            5.10809289858844        2.60772659682722       -2.41988509355029
C            4.97380663668622        2.02175577963003       -3.66891960953713
C            4.12373379392176        0.94386480883870       -3.86198670258768
C            3.39376853782868        0.41428764963788       -2.80565278215947
C            3.52379906464530        0.99392277625495       -1.56398528520926
C            0.40871683888580        2.76914798999958       -0.53225909102996
C            1.38095646680457        3.70327321447486       -0.85459791496611
C            1.04067624793397        5.03283796490707       -1.04062699035892
C            2.11239818413552        6.03575474306942       -1.34766821024426
C           -0.29540405380430        5.41580408856817       -0.95527384236236
C           -1.29564941684132        4.50391565289406       -0.67614101720837
C           -0.94409016306696        3.18421287746688       -0.43237783446828
N           -1.73713700711079        2.07701444230620       -0.20648189144875
C           -3.04946881624837        1.95927896005215        0.22475944634607
C           -3.76910049362065        3.03808766888831        0.73508557376166
C           -5.07998772894683        2.89272512996755        1.13367376410079
C           -5.72669397011373        1.66345159660029        1.05254527593740
C           -7.18364117904199        1.53891685199746        1.46517922246113
C           -7.31910911771809        1.92408398392178        2.94499609668285
C           -8.02882519732377        2.48591840978875        0.60183482249529
C           -7.72662530364958        0.11823398559039        1.28816132738409
C           -4.97753024764024        0.58396734413985        0.61132806200004
C           -3.65029888894501        0.69861917695635        0.22142890930080
C           -2.90696090690058       -0.56438269149747       -0.21587594798810
C           -3.33172718781205       -1.68874908309019        0.70260318414301
C           -2.96727039450321       -1.91249397768496        2.00996005230408
C           -3.53978175672317       -2.98478573607636        2.68275364059764
C           -4.47023891054784       -3.80045134459012        2.05867303798785
C           -4.84199555817183       -3.57912962374543        0.74143399961301
C           -4.26383871508705       -2.52129815689523        0.06145012926462
C           -4.39285962345970       -2.08452066832458       -1.32354706993416
C           -5.13545039524255       -2.59602538612801       -2.37392726822685
C           -5.01319250934890       -2.00422740059562       -3.62143335583204
C           -4.16426802105321       -0.92602742940666       -3.81792476884807
C           -3.42328076035997       -0.40207572477641       -2.76649160903756
C           -3.54141912950460       -0.98751850055025       -1.52633902875781
H           -2.76726716296104       -5.67610795916936       -2.13101830816942
H           -1.71095106490959       -6.99477111036705       -1.60317941379388
H           -2.76334775088641       -6.17551764854365       -0.44333591866661
H            0.54883554857056       -6.44928029205099       -1.13791080384027
H            2.31520610809040       -4.82537082511080       -0.72263856428436
H           -2.41431611028018       -3.40864635090801       -0.96716844020739
H            3.29725229976637       -3.99366054082594        0.81708323057321
H            5.61567727215207       -3.75984046474231        1.44786382532598
H            7.22379255755291        0.59205706025987        1.78979402082171
H            7.66382191112505        0.18152237851098        0.12298002627401
H            8.80292789539516       -0.10035733962586        1.43626131935056
H            8.39781327042333       -1.81289834137052        3.15322234347902
H            7.03997604516520       -2.93034864324652        3.03697064103186
H            6.75418115289644       -1.24422542668071        3.46305319648714
H            9.08971950132266       -2.41784837123780        0.75694671668287
H            7.91262064836065       -2.26011682434945       -0.55066594678576
H            7.73037886420550       -3.53365950150626        0.65382277029338
H            5.43852777254114        0.38918621520030        0.49347342181493
H            2.27307553811366        1.25667751850897        2.47696156149433
H            3.29474053171671        3.16248068588406        3.68304213843823
H            4.92972547698452        4.61095188187490        2.57076555321433
H            5.55895796838242        4.22247308952080        0.21390436261057
H            5.76739004077617        3.45120317543444       -2.27531354640395
H            5.53600837217914        2.41280854657924       -4.50455746762010
H            4.02976429005487        0.50865793363337       -4.84608251121837
H            2.73501188699836       -0.42873451066211       -2.95647082337690
H            2.40187818509301        3.40569529166981       -0.99768164703514
H            2.62892554613763        6.32045873815566       -0.43012721223855
H            2.84964890004048        5.61188726572975       -2.02679199062993
H            1.69314243881036        6.93333945355883       -1.79594551042945
H           -0.56332045947972        6.44616265785884       -1.14088117149557
H           -2.32482305644897        4.82294247945923       -0.70060285250260
H           -3.28738592379836        3.99350851772297        0.85330935329184
H           -5.59629536145393        3.75923101698172        1.51783946042420
H           -8.35414456313474        1.82530862872158        3.26545182908429
H           -6.70266247997463        1.27149619116513        3.55979143498163
H           -7.00598233164918        2.95020161915129        3.11681585760072
H           -7.72354896131108        3.52020657100221        0.73390996040498
H           -7.92123021278613        2.23002393042549       -0.45023305484078
H           -9.07953325503063        2.40370192286577        0.87210020773776
H           -8.77450378871163        0.09238856266271        1.58074639268918
H           -7.65864098741303       -0.19947062961703        0.25003013060659
H           -7.18599357616729       -0.58952259337784        1.91283040358838
H           -5.43014345840664       -0.39138885185872        0.56808229766902
H           -2.24814044678014       -1.27221259343150        2.49974689996906
H           -3.25897030098808       -3.18327194762101        3.70667812146039
H           -4.90837338391750       -4.62330696320414        2.60492793523626
H           -5.56274516052150       -4.22144354869644        0.25693166498271
H           -5.79365783624224       -3.43986227930850       -2.22682741474908
H           -5.58396155951032       -2.39091416496720       -4.45329813319067
H           -4.07976794111310       -0.48624087939828       -4.80085176784076
H           -2.76527839129933        0.44106010054569       -2.91996959095273
