93
 energy: -148.515590133213 gnorm: 0.000040657118 xtb: 6.7.1 (edcfbbe)
C           -5.79691449976711       -3.19211242359145        0.04747129513321
C           -4.85890012104253       -2.61012842375350       -1.02829579678776
C           -5.60983524714311       -2.46566599919758       -2.36650174798333
C           -3.69927608853737       -3.56388911027717       -1.22802197907168
C           -3.94331694952539       -4.86614976235968       -1.64327796404283
C           -2.91990616282939       -5.77179361692497       -1.85486393504233
C           -1.60672054798081       -5.37608976943655       -1.65528621413122
C           -1.33400593720035       -4.09081790188795       -1.24218236877631
C           -2.36951170164016       -3.17420708236515       -1.01560398799167
N           -2.06629546178386       -1.89536711217000       -0.59083496625076
C           -0.69704037402934       -1.53399874725008       -0.41772445370047
C           -0.02432908745984       -0.87027393630698       -1.45540468911125
C            1.28756867063576       -0.52496449907200       -1.28303527311138
C            1.97081191289201       -0.82384805584270       -0.09050371056362
C            1.29625598538483       -1.49754036160106        0.96157270275293
C           -0.04979525252109       -1.83614253799186        0.75898401692501
C            2.00536390934024       -1.80286495728397        2.17723136560114
C            1.41443082181756       -2.47434062775736        3.26096880181717
C            2.11863549753072       -2.75100635207957        4.40661908954306
C            3.45652446851781       -2.36696961034884        4.52413669766006
C            4.06461309998622       -1.71178402067868        3.48520182017118
C            3.36328506614263       -1.41943980970063        2.30427683966618
C            4.03550823860778       -0.73553646574474        1.24053993543258
N            5.31416738326837       -0.37603708224762        1.37343803210850
C            5.93964439260515        0.26362985081444        0.37724162141135
C            7.30381431180282        0.65109660767636        0.51089423084962
C            8.02943576767484        0.37970980748319        1.68354792132114
C            9.34091427776760        0.76979928355781        1.77269949008952
C            9.91087553429391        1.43248529434456        0.67463611602691
N            9.26253242001853        1.69908107153436       -0.42902361812927
C            7.98091751352266        1.32820991927747       -0.54022741538713
C            7.27517246808550        1.62332291659758       -1.75482576226552
N            7.92091408701994        2.25867295437355       -2.74157460245163
C            7.28299853397048        2.52904965255330       -3.85059615864706
C            5.94108258602354        2.19263665722418       -4.08037457674161
C            5.25800072650918        1.54176143766993       -3.08388846267555
C            5.91418082816898        1.23594617633323       -1.88120986742145
C            5.23996843373151        0.55646533382238       -0.82123450271110
N            3.96279522214829        0.19643717621459       -0.95439342891692
C            3.33837550188932       -0.44252234635253        0.04614247202364
C           -3.03428955183592       -0.94126904893870       -0.36288571088896
C           -2.64311592463908        0.32137625763144        0.10082727707783
C           -3.59806580548570        1.29260851648083        0.31417824908818
C           -3.54786176408256        2.65119661965896        0.78355857306153
C           -2.51358988529622        3.49079684191508        1.17102540329279
C           -2.82167320055921        4.78346231337551        1.55399896181124
C           -4.13658941101030        5.24151454041660        1.53966989388602
C           -5.18362593156701        4.42218498927243        1.15642316567433
C           -4.88311173502364        3.11803120667816        0.79255021599979
N           -5.72327456758872        2.11082398798443        0.35218791525435
C           -7.11824063043283        2.20401787139707        0.21194846447018
C           -7.90090909266985        2.64529170129995        1.27467492104021
C           -9.27338792161738        2.73464991084907        1.12730834997530
C           -9.87273349700334        2.37863247738892       -0.07014874369763
C           -9.09390640176498        1.93541475655237       -1.12698669506098
C           -7.72008695906750        1.85089826321120       -0.99258095668687
C           -4.96068410563891        1.00741242846448        0.05855463394858
C           -5.35128077448867       -0.25609396038692       -0.36224369455505
C           -4.40015852993585       -1.23700669226739       -0.57731142042371
H           -5.26516346107057       -3.28595527312112        0.99254604003712
H           -6.65784496123968       -2.54793889625543        0.20013266972051
H           -6.15460451258751       -4.17506886682048       -0.24406777321466
H           -6.47656260676336       -1.82109282653867       -2.25535689644272
H           -4.95079664457911       -2.03468933922683       -3.11808630062503
H           -5.95003444114939       -3.43295882272583       -2.72380918319834
H           -4.95902595961534       -5.18941751243718       -1.81002674311885
H           -3.14467248297501       -6.77739046920636       -2.17601104143021
H           -0.79435388899694       -6.06725401068189       -1.82247209167876
H           -0.31081822444014       -3.78427047385286       -1.09148636663921
H           -0.54859453658342       -0.64156835418373       -2.37071807434717
H            1.83703385164104       -0.01448097858179       -2.05853375124592
H           -0.60718561317451       -2.34589989352248        1.52858451435660
H            0.38379203185339       -2.78604908717820        3.20281181712543
H            1.63652703802159       -3.26927213879732        5.22261687159907
H            4.00590672114917       -2.58686850811834        5.42748964562062
H            5.09731985859144       -1.40360482557976        3.54445350837440
H            7.52722082591281       -0.13402388205197        2.49055026161221
H            9.92697276206419        0.57729525376940        2.65790078717806
H           10.94324144716416        1.75824481636551        0.70045056023667
H            7.86181141967561        3.04266400912568       -4.60819843721839
H            5.46800071408106        2.44254552429110       -5.01719333407100
H            4.22293714324874        1.25224594102051       -3.19315173179425
H           -1.60419555069848        0.53201983522615        0.29505964499796
H           -1.49209217285783        3.14091397163985        1.16786418506759
H           -2.03154693199580        5.45263267787993        1.86090458787864
H           -4.34356824375919        6.26081369807815        1.83063231702673
H           -6.19719246111839        4.79212719074409        1.13303904703826
H           -7.43134102626856        2.90161240947009        2.21262919330683
H           -9.87780034304945        3.07741609453145        1.95397299030312
H          -10.94456023104225        2.44711893334362       -0.17960714103259
H           -9.55689628855420        1.66194611721203       -2.06354183753842
H           -7.10558374802942        1.52950431430403       -1.82025273009728
H           -6.39781860601287       -0.46653683686941       -0.51023482916935
