93
 energy: -148.566337769231 gnorm: 0.000051707817 xtb: 6.7.1 (edcfbbe)
C           -5.19447085286385       -2.85835525009037        0.96956326218817
C           -4.31855032411221       -2.59570640134305       -0.27066854688537
C           -5.13829055621816       -2.81579673494456       -1.55640161521477
C           -3.16060648318548       -3.57541972691775       -0.26222472942589
C           -3.42058039707904       -4.93849813617893       -0.31169999092749
C           -2.40917492362161       -5.88100306834628       -0.33483866189721
C           -1.09241187747310       -5.45677305260674       -0.32528937513751
C           -0.80549108415362       -4.10904606206925       -0.27318879903448
C           -1.82691835431451       -3.15422293525991       -0.22027602223123
N           -1.50839724354621       -1.80743907996167       -0.15469036462126
C           -0.14425749267741       -1.42183956952968       -0.10343491283546
C            0.46652817066310       -0.85713999201406       -1.22646191556013
C            1.78984802144071       -0.49748912138132       -1.16187706393755
C            2.53272874935853       -0.68764054829303        0.00916263550621
C            1.92754600895974       -1.25304699664259        1.15131974986525
C            0.57827135714630       -1.60977288109670        1.06066672533956
C            2.70323006349417       -1.44476586120039        2.36742750451442
C            2.15792143312729       -2.00779214026822        3.52825457923203
C            2.91393343456182       -2.17873796544825        4.66716072124641
C            4.25035729612372       -1.79272732848462        4.69199760345270
C            4.81387059831654       -1.23796702959571        3.56712115574852
C            4.05915456552253       -1.05843888492552        2.40311250465448
C            4.67645028051623       -0.48040365562732        1.23305958075326
N            5.95476142256427       -0.11899340954472        1.28721593198868
C            6.51264968679688        0.39655488439591        0.19566666950890
C            7.89710762890416        0.80037475616652        0.23792974747338
C            8.66415974092102        0.68130611022016        1.40274000441684
C            9.98058084139575        1.08390201135537        1.38169727879240
C           10.49345717028920        1.59597061751928        0.18808068009937
N            9.79209879891572        1.71664458222309       -0.91475926791147
C            8.51448761642794        1.33237970957299       -0.91271507992787
C            7.75367778666977        1.47407581726044       -2.14250062557822
N            8.37503609829647        1.97258731564434       -3.21271773833044
C            7.70273826662137        2.10850648952251       -4.33175583621179
C            6.35833178615099        1.76003776897665       -4.47630149764847
C            5.70043561143435        1.24331439833549       -3.38272599108713
C            6.39776472876718        1.08869863324240       -2.17891971730256
C            5.76624472988699        0.54971002639765       -0.99846319661618
N            4.48375564180499        0.20253542516102       -1.04974845848823
C            3.92309730218658       -0.30587130910185        0.04429243163495
C           -2.48438832140255       -0.81370293828539       -0.15139120402507
C           -2.09461194870382        0.51831428839312       -0.02808975230681
C           -3.05301821470223        1.51711082013682       -0.04279793587002
C           -2.99658663882492        2.94697247515754        0.07261838442051
C           -1.95497610424454        3.85551941905854        0.20770850674473
C           -2.25413247473824        5.20235722442150        0.26749327024289
C           -3.57204037978465        5.64719896558793        0.17967465117148
C           -4.62521169380357        4.76285498767920        0.04348474061245
C           -4.33432781895551        3.40602459032374        0.00617261012244
N           -5.18208472903957        2.32833395251328       -0.14570368068210
C           -6.57857602616370        2.38256978945254       -0.26517830404593
C           -7.33700091915389        3.09165832642952        0.66221313852254
C           -8.71315841044059        3.14306961428855        0.53431227533386
C           -9.34419991580915        2.48165022192904       -0.50667362035618
C           -8.59150756246413        1.77027909484600       -1.42701718858231
C           -7.21420633782672        1.72238839503745       -1.31361180725179
C           -4.41398920123299        1.17790335438050       -0.17799484641360
C           -4.80370467226319       -0.14806710636408       -0.24401498430803
C           -3.84802881570811       -1.15297204728459       -0.23109778845781
H           -4.61185314161086       -2.69718378453812        1.87508154707333
H           -6.05130713613222       -2.19059957511824        0.98999924515314
H           -5.56002553083922       -3.88144063361764        0.97456617508665
H           -5.48815060633886       -3.84205005922598       -1.62249316662660
H           -6.00474159515165       -2.16106712212467       -1.58152987058088
H           -4.52147553174239       -2.60724722096053       -2.42906023668208
H           -4.44353952560301       -5.28268812547511       -0.33467232824416
H           -2.64789078993256       -6.93341389244297       -0.36971766507113
H           -0.28432837332600       -6.17292528976858       -0.36124693578988
H            0.22532598406134       -3.78959291398471       -0.27904726221248
H           -0.10765093142865       -0.71116113411903       -2.12884204974460
H            2.29045799958801       -0.06456381259443       -2.01309506404612
H            0.06503328548672       -2.04743062806910        1.90158968185241
H            1.12640297280187       -2.31938267494287        3.54606924890961
H            2.46417208934434       -2.61612695141282        5.54616937816799
H            4.83861940305963       -1.92894387219063        5.58679297304190
H            5.84712608769280       -0.92945073629173        3.55122113678818
H            8.20254346790216        0.27643833906557        2.29023572741134
H           10.60364551884982        1.00876324951243        2.25892998473828
H           11.52259546481652        1.92490723172132        0.12021010852848
H            8.26424063398927        2.51783051237153       -5.16183889697093
H            5.85553979882195        1.89378195968022       -5.42111956418774
H            4.66231664965334        0.95133327216039       -3.42372815374905
H           -1.05504904474567        0.77937287550924        0.08867097116364
H           -0.93241832354223        3.51089049630802        0.26008659774032
H           -1.45826951940402        5.92509690788385        0.37491263142459
H           -3.77453558399220        6.70798675174559        0.21436231441585
H           -5.64048583056657        5.12005849709027       -0.04178394619770
H           -6.84393441474629        3.58909905875848        1.48425629414093
H           -9.29603599015774        3.69575004842055        1.25659476583512
H          -10.41910096223540        2.52112163998230       -0.60054195373014
H           -9.07851446362400        1.25666467728791       -2.24312316538524
H           -6.62142935285634        1.18825558866879       -2.04144947372256
H           -5.85260777081889       -0.39325551209232       -0.29136987304507
