93
 energy: -148.515559673935 gnorm: 0.000051137698 xtb: 6.7.1 (edcfbbe)
C           -5.73284610144224       -3.26869809845240       -0.15598933612545
C           -4.83550027712716       -2.57815957100350       -1.20177847828870
C           -5.62534718958480       -2.33848578586571       -2.50346817110025
C           -3.66359363349553       -3.48676351747361       -1.50994181851826
C           -3.89409656412175       -4.75214793526541       -2.03317131043273
C           -2.86004696865456       -5.61393564727497       -2.34972657007371
C           -1.54975534113678       -5.20843890802181       -2.15102296293360
C           -1.29063630439183       -3.96014624966405       -1.62989907365945
C           -2.33661837385903       -3.09094860553892       -1.29172967821166
N           -2.04670043401368       -1.85086688276934       -0.75594292730397
C           -0.68154397720982       -1.48953972141912       -0.55635948484000
C           -0.03912000880680       -0.67056478913117       -1.49818949815587
C            1.26981967631720       -0.32865627787531       -1.29906267173587
C            1.98139515216988       -0.78571357343517       -0.17506049252264
C            1.33833872614881       -1.61791107804567        0.77860043423102
C           -0.00646694338273       -1.94633964899628        0.55315864930706
C            2.07685078283236       -2.08730492230975        1.92234778455169
C            1.51763155478929       -2.92065912762086        2.90591154027619
C            2.24940890861619       -3.35182842119279        3.98458038924507
C            3.58426826119066       -2.96767774741137        4.13216682763144
C            4.16156706714096       -2.15634871767929        3.19044687948535
C            3.43179325006836       -1.70466149829650        2.07897969300980
C            4.07279361379313       -0.86227349081852        1.11431203215056
N            5.35083971503535       -0.51048016001098        1.27148446711794
C            5.94735592338592        0.27754841812718        0.36813493884830
C            7.31072279023118        0.65764911554289        0.52820669873680
C            8.06824292878368        0.21864855650499        1.62770996858856
C            9.37766194659124        0.60806615717711        1.74532029550258
C            9.91323613625666        1.44026756683840        0.75015749385283
N            9.23459447982692        1.86530960820346       -0.28336322786069
C            7.95442543920122        1.49832056103132       -0.42078561654987
C            7.21567358308305        1.96803514127169       -1.55830802517296
N            7.82928186270132        2.76022795537809       -2.44734403057775
C            7.16148403743677        3.18950552311323       -3.48640890904430
C            5.81952941577252        2.86917428142915       -3.73784744528042
C            5.16936440708372        2.05890893726875       -2.84124666340561
C            5.85756151492743        1.58178902287073       -1.71460892948881
C            5.21657545858447        0.73825540857797       -0.75678124768240
N            3.94089204425559        0.38352164687673       -0.91592976464870
C            3.34606272072260       -0.40599333850243       -0.00918213809997
C           -3.02654468060369       -0.93655103540580       -0.43331043177533
C           -2.64930350114664        0.28935186710811        0.12990661858621
C           -3.61590180469546        1.22518433799123        0.43118437432692
C           -3.57898067695830        2.54535065311008        1.00071692526373
C           -2.55161674173087        3.37125836965176        1.43347740537103
C           -2.87282148347282        4.62825636273243        1.91238039922540
C           -4.19433726952735        5.06564550994511        1.94844606126791
C           -5.23469777627325        4.25933835720816        1.52192496847572
C           -4.92068546732212        2.98914692952419        1.06186116052673
N           -5.75239581130677        2.00412406112450        0.55946811983123
C           -7.15094321927470        2.08393183392631        0.45101539118507
C           -7.91919373904386        2.43636651304546        1.55667398329051
C           -9.29547172565371        2.51349960497805        1.44172000208723
C           -9.91314520722232        2.23110248666888        0.23400009142018
C           -9.14867230494682        1.87665160424703       -0.86592761070339
C           -7.77123306054547        1.80614888680931       -0.76386984719214
C           -4.97767235939847        0.93851242670898        0.17261646146960
C           -5.35442138471059       -0.29471527850945       -0.34042809761418
C           -4.39096169186875       -1.23786979480153       -0.64936665107888
H           -5.16915582496777       -3.44823101695792        0.75762472867992
H           -6.59160700541491       -2.64958155674925        0.08630122539076
H           -6.09447636620814       -4.22219143240939       -0.52917340077116
H           -6.50918186050201       -1.73694251545535       -2.31394884541575
H           -4.99988430644043       -1.81898012517718       -3.22716913871265
H           -5.94396762652811       -3.28015820967699       -2.94006413736274
H           -4.90765765689667       -5.08067175935621       -2.20235463831956
H           -3.07427806152376       -6.59162837524563       -2.75355357892280
H           -0.72902121397286       -5.86309235998596       -2.40279779282336
H           -0.26945484060837       -3.64600619574883       -1.48210329318748
H           -0.58368798720310       -0.32291184898155       -2.36280120575396
H            1.79559848024867        0.29905096287087       -2.00150376983451
H           -0.54054059547254       -2.57261268344471        1.24982960511007
H            0.49000709946751       -3.23641114988122        2.82210801708158
H            1.79149972161093       -3.99204077567837        4.72444427362351
H            4.15546818285521       -3.30941547843319        4.98258282108372
H            5.19085347265276       -1.84284547197373        3.27565924275952
H            7.59179460312102       -0.42023942916773        2.35724026486169
H            9.98810060104858        0.28907095919976        2.57577920501256
H           10.94257418100184        1.77243274301993        0.80205864627543
H            7.71489754538723        3.82579609891465       -4.16585895341846
H            5.32121011855347        3.25382646568124       -4.61399559294279
H            4.13625763396744        1.77160394814075       -2.97264304721198
H           -1.61154468930150        0.50038266629889        0.32956641485332
H           -1.52521933271579        3.03872464428671        1.39116977966992
H           -2.08820711963361        5.28606763287432        2.25580086180646
H           -4.41198447006356        6.05834485641878        2.31398659285501
H           -6.25366601332596        4.61456282421078        1.53776099942888
H           -7.43525050811001        2.63447191010355        2.50139238266004
H           -9.88811797905312        2.78782664955808        2.30175498071603
H          -10.98786082938959        2.28892863405180        0.14990782667514
H           -9.62601461574756        1.66174487840329       -1.81053572697458
H           -7.16911534361777        1.55582043001615       -1.62448717494917
H           -6.39980291739870       -0.51211842823973       -0.48667990584532
