93
 energy: -148.566352861917 gnorm: 0.000066110122 xtb: 6.7.1 (edcfbbe)
C           -5.76717470685180       -3.21520676447610       -0.06441786238432
C           -4.83738181913638       -2.58397255963198       -1.11866580710010
C           -5.59346258004603       -2.39286849861967       -2.44752409444544
C           -3.66855375583143       -3.51985609923082       -1.36074633996590
C           -3.91217752310768       -4.80339208036024       -1.83137567177847
C           -2.89080440210404       -5.69329786747744       -2.10747270890362
C           -1.57974202056392       -5.28934913221735       -1.92934021394994
C           -1.30937368927093       -4.02096271614158       -1.46093833555630
C           -2.34160847764156       -3.12922394144771       -1.14887579944345
N           -2.04144819936238       -1.86525155300362       -0.66477051958467
C           -0.68481320267813       -1.49227778926165       -0.49300151723836
C           -0.09970814723953       -0.56833509644073       -1.36379883374316
C            1.21642564615224       -0.22027500869936       -1.18985632283422
C            1.98015858856966       -0.77971996430483       -0.15868163472853
C            1.40368497244469       -1.71547275097226        0.72582380438331
C            0.05862171145459       -2.04671631255381        0.53344580245442
C            2.20457704808006       -2.29800537253442        1.79198196862390
C            1.68983591454394       -3.23903318501147        2.69273154811770
C            2.46926903826235       -3.77758607363768        3.69290800583805
C            3.80002890973918       -3.39675764521123        3.83315402166542
C            4.33421234606921       -2.47659431586349        2.96212761704110
C            3.55542178549185       -1.92083499928252        1.94166215452553
C            4.14212988115962       -0.96044281233533        1.03717075818724
N            5.41716014729398       -0.61746940657702        1.19356266179257
C            5.94196026694968        0.26611511827580        0.34918622594340
C            7.32424806748592        0.65054121199614        0.50209663379853
C            8.12931292223568        0.11752398577896        1.51555056282399
C            9.44195639515828        0.52189222119607        1.61065972350281
C            9.91252039229995        1.45383508326793        0.68326377392226
N            9.17528020047346        1.96609151770518       -0.27420120602641
C            7.90101033685237        1.58579652919116       -0.38181538152283
C            7.10083406174817        2.16328549134414       -1.44832558009242
N            7.68096933818835        3.04531182376224       -2.26420588780457
C            6.97229246719734        3.57563252646885       -3.23339234019659
C            5.62998324039954        3.27167390335795       -3.46917409085014
C            5.01405286213250        2.36440152074400       -2.63671894913970
C            5.75044769413490        1.78579217669362       -1.59651552077025
C            5.16213208320285        0.82864588062624       -0.69081208093623
N            3.88666075286558        0.48780873589732       -0.84766568209631
C            3.36155140688829       -0.39664484347814       -0.00398846434918
C           -3.03163471684156       -0.92596470143404       -0.38277722947728
C           -2.66487979525056        0.29868432157438        0.17175826489149
C           -3.63459957340564        1.25192731375681        0.43130066242836
C           -3.60034144352938        2.57656366136577        0.98388897815252
C           -2.57584918556380        3.39976688522335        1.43256839926377
C           -2.89314350206338        4.66451265328147        1.88736153713834
C           -4.21161879140805        5.11615415428944        1.88443780500978
C           -5.24816943732784        4.31609753098102        1.44245481385030
C           -4.93983088848596        3.03495833895902        1.00568507008250
N           -5.76771007823514        2.05661355336490        0.49513256680534
C           -7.15963044463259        2.14198668290744        0.34493562442878
C           -7.96068765252346        2.52914949780946        1.41564635653772
C           -9.33230768676706        2.61064799982667        1.25776810167874
C           -9.91645388522558        2.29617233289253        0.04149018923824
C           -9.12117734972379        1.90548122539144       -1.02363765935571
C           -7.74796680155025        1.83260965758344       -0.87866698708414
C           -4.98488758922162        0.97212497982482        0.14134719850003
C           -5.35485774681142       -0.26782007603337       -0.34847992737408
C           -4.38723735910754       -1.22541863435898       -0.61340977126043
H           -5.23041691833398       -3.34266226481688        0.87420806223338
H           -6.63290123229546       -2.58497212864756        0.11902317270379
H           -6.11954141181493       -4.18893119875044       -0.39281857026644
H           -6.46503112699916       -1.75917547909591       -2.31010197850674
H           -4.93904721408719       -1.92679026696439       -3.18245005430276
H           -5.92776815446055       -3.34731724282943       -2.84413079681586
H           -4.93009878575768       -5.12436845807459       -1.99306371437164
H           -3.11676184475184       -6.68536752176357       -2.46862197715618
H           -0.76288411798286       -5.95831277310191       -2.15809273021082
H           -0.28193981824668       -3.71344808886982       -1.34168388885952
H           -0.68870564887312       -0.13993829387407       -2.16058434836068
H            1.69642651538876        0.48680508311429       -1.84731621097850
H           -0.43490098673911       -2.75091834567329        1.18353116492121
H            0.66404667981644       -3.55985501672683        2.61338463276528
H            2.04176972543214       -4.50056003865135        4.37176953919171
H            4.40702439211683       -3.82126779236129        4.61846573610013
H            5.36240609397202       -2.16094033238412        3.04107566182381
H            7.69860943022188       -0.59875879962401        2.19831673505021
H           10.09393936536616        0.13385726353658        2.37732615129296
H           10.93657378258900        1.80332547595402        0.71612439523935
H            7.50079769517667        4.28296610212483       -3.85968145570395
H            5.09641670865340        3.73858684224766       -4.28202508876647
H            3.97935451932332        2.08363281048241       -2.75983278694091
H           -1.63427249979355        0.50974367422774        0.40811893624617
H           -1.55206266002150        3.05508934559495        1.41944408421465
H           -2.11078581433797        5.31936383367276        2.24275615783092
H           -4.42753918448664        6.11632614460816        2.23171117826829
H           -6.26346906712551        4.68315915176217        1.42787478268337
H           -7.50404351923225        2.75221215854424        2.36859262820809
H           -9.94865443052837        2.91264448514971        2.09189599874932
H          -10.98811433002018        2.35604305275595       -0.07617062201589
H           -9.57135479941303        1.66429361806538       -1.97555435215774
H           -7.12183159663391        1.55115301432936       -1.71234303962014
H           -6.39801060058623       -0.48694239183193       -0.51104393427203
