76
 energy: -103.373810355329 gnorm: 0.000057586768 xtb: 6.7.1 (edcfbbe)
C           -2.11888415745546       -3.16847056749239       -0.32473756848206
C           -2.74497965128495       -2.72321230206969        0.95950907450290
C           -2.93183934159477       -3.61816264668328        2.00505405959371
C           -3.51479384315547       -3.21732657780036        3.19463474234506
C           -3.93510523668583       -1.90684757470171        3.35243970008323
C           -3.74889584764427       -1.00154498757190        2.32487714995003
C           -3.12200193632113       -1.39350658253202        1.15002528726993
P           -3.05380200205431       -0.11894633010179       -0.33626283779104
C           -2.21664005801407        1.23887099439686        0.60272546794466
P           -0.52979942847247        1.21996694848138       -0.19603149589733
C            0.11028270394207       -0.27027221721109        0.71467036398674
P            1.27627471038256       -1.04246565013868       -0.50461565349049
C            2.12739103032800       -2.27830369493884        0.55079647317644
C            1.54744100235901       -2.76832199446546        1.71697036227981
C            2.17787250658822       -3.74684515021976        2.46395922348386
C            3.39457953922320       -4.25521701455727        2.04640287693536
C            3.96149576873010       -3.79738378271021        0.86970036477755
C            3.33759354441270       -2.82406620828530        0.10395905221796
C            3.95432340683856       -2.36068221258566       -1.17823067933135
C            2.49620257619636        0.33746434107405       -0.41931545292094
C            3.17524438335090        0.59253113901892        0.76690094405818
C            4.03723516995886        1.66659078186052        0.86922390813700
C            4.23280979992001        2.49264540009697       -0.22404360724333
C            3.57302281229909        2.23302004268143       -1.41081367095099
C            2.69839204650789        1.16023035327576       -1.52894147699143
C            1.97594925196723        0.91296955526172       -2.81606438613975
C            0.29883273017621        2.55529337535971        0.75605092824242
C            0.88903706407073        3.57651033244334        0.02103533178129
C            1.56362811161268        4.60193111601786        0.65735970741261
C            1.64790546812020        4.61863702793158        2.03852838079399
C            1.04417656012896        3.61568282384870        2.77960096112372
C            0.37055966977211        2.58996624574671        2.14405553750610
C           -3.27578041189320        0.98849685676680       -1.92872094022041
C           -4.22715739788053        1.99446039021037       -1.87509114772561
C           -4.50406065842515        2.75063078806578       -2.99897765984337
C           -3.84142231281446        2.47831042468622       -4.18379125798792
C           -2.91981018133546        1.44762605774324       -4.24137863506106
C           -2.63624939525196        0.67330183051480       -3.12329603897271
C           -1.67076506408769       -0.46637810137727       -3.20651268493937
H           -2.64487323763210       -2.71963990724839       -1.16708928881478
H           -1.07320097447982       -2.85550328595534       -0.38189842665972
H           -2.15119904784434       -4.25160875067768       -0.41687942014493
H           -2.61894162091889       -4.64583268670720        1.88013430307627
H           -3.65428427168780       -3.93057924504184        3.99377438087812
H           -4.41067334995997       -1.59255766802412        4.27061395448646
H           -4.09141186822839        0.02002541345718        2.43293523701620
H           -2.15822716832454        1.04706011971006        1.67537608736538
H           -2.68983601243504        2.20171236530145        0.40112955060649
H           -0.73067029526621       -0.94140635864317        0.90547193454209
H            0.61263578208465       -0.00560047791717        1.64845340199018
H            0.59070615174018       -2.39203431944331        2.04998623644377
H            1.71577058593283       -4.11207738406472        3.36974775615226
H            3.89541331114299       -5.01530153137216        2.62796324188939
H            4.90301128412083       -4.20942619989380        0.53367057329642
H            3.18025059412472       -2.19044437551814       -1.92823052955879
H            4.48606092536137       -1.42005564207196       -1.02837234754546
H            4.65875061959922       -3.09717303090439       -1.55859501171379
H            3.03415318100298       -0.06418857370869        1.61579824491002
H            4.55453537752289        1.85865611803732        1.79795963569014
H            4.90347123734937        3.33641812510815       -0.15224219840052
H            3.73512479936927        2.87763649771799       -2.26369665552689
H            0.94486902791149        1.26052176246080       -2.73379162713080
H            1.94865833772587       -0.15151392630042       -3.04426295708714
H            2.45357838797630        1.44092743164033       -3.63823729316800
H            0.81972972245786        3.55433762624772       -1.05775206350960
H            2.02669711140174        5.38612849611115        0.07636122142638
H            2.17931074773201        5.41408807910640        2.54030206044790
H            1.10031717613250        3.63377197434621        3.85894305714090
H           -0.10000499484852        1.81693980857830        2.73735241325600
H           -4.74596964402637        2.18925866226239       -0.94429840630974
H           -5.23447300141903        3.54560680999543       -2.95082028911728
H           -4.05008683507240        3.06409518674947       -5.06722440867115
H           -2.41293694225479        1.23339015910707       -5.17253409106588
H           -1.06590082310811       -0.52517478091525       -2.29978134331086
H           -2.21499016414461       -1.40604797699219       -3.30879020459307
H           -1.01289093386090       -0.35919188423624       -4.06569344385189
