76
 energy: -103.374979017949 gnorm: 0.000091803508 xtb: 6.7.1 (edcfbbe)
C           -1.65323483143558       -2.66106192045754       -2.25069716432574
C           -1.23540843525069       -3.40085329451978       -1.01886450830110
C           -0.74430960744225       -4.69733035854340       -1.08690325881128
C           -0.38100406247540       -5.38455402853761        0.05928889024508
C           -0.49728104437634       -4.77718170103160        1.29811906586668
C           -0.98029710669979       -3.48448719690670        1.38036505902642
C           -1.32149894324059       -2.79340493481781        0.22902589914539
P           -2.28291928715777       -1.10551526000622        0.49166380782003
C           -0.75779974530595       -0.12027670952305        0.82635401884957
P           -0.23670668253152        0.59381902284360       -0.81890941011421
C            1.15430784824139        1.68981374453506       -0.21926204530073
P            2.65922997321910        0.89067064439766       -0.96538760315643
C            2.57967959509014       -0.65499495665634        0.03423079417884
C            2.78816468553705       -0.60831727283241        1.40844952758303
C            2.71858588520485       -1.75885878153441        2.17139376760832
C            2.44695680031663       -2.97014649442556        1.55835511199696
C            2.24726137889735       -3.02237566195141        0.19109924113336
C            2.30585082195442       -1.87492050015998       -0.58847450333176
C            2.10764522539048       -1.95812980042087       -2.06892803624206
C            4.01909484857166        1.73283626105009       -0.06699221794646
C            3.83521311852075        2.92926253563452        0.61795994373217
C            4.89715954178292        3.55947570766379        1.24131894619413
C            6.16201552454901        3.00372463513674        1.17644311912310
C            6.35961099903696        1.82983434929939        0.47034657681274
C            5.30670001842968        1.18934295303548       -0.16502598429141
C            5.54199367229748       -0.06991064882808       -0.93778374160811
C           -1.55547028900217        1.86217285017373       -0.97903767187006
C           -1.81442736848798        2.82375527255508       -0.00812151044836
C           -2.84086060334119        3.73078973995975       -0.18293103014871
C           -3.61349809008583        3.69607794148101       -1.33248523735203
C           -3.34406547780830        2.76297652584462       -2.31716470496396
C           -2.31685838569446        1.85265221479938       -2.14099098720800
C           -3.56168266328885        0.29744879788988        0.90819987195590
C           -3.49507049589235        0.96822195991007        2.12117082086145
C           -4.46788486275833        1.88757652808155        2.46559296748714
C           -5.52990177248342        2.11657407619962        1.60818554779557
C           -5.63070793815300        1.39803118889315        0.42939345225568
C           -4.66781287049001        0.46515990707188        0.07555179954533
C           -4.79979420836400       -0.34215039041672       -1.17695118341443
H           -2.74030558011473       -2.67511387748469       -2.34086215727136
H           -1.33353945079509       -1.62055167095580       -2.18755317857984
H           -1.22833776714162       -3.11150938911002       -3.14481419211559
H           -0.65199987212239       -5.17806207274415       -2.05199257230071
H           -0.01159468595474       -6.39744593292500       -0.01464013478162
H           -0.22012472262971       -5.31080400232290        2.19609456993489
H           -1.08538893235903       -2.99721586147914        2.34221650840599
H            0.03749906760716       -0.78254954764099        1.17587085582927
H           -0.93547739104367        0.68653219275015        1.53833400631935
H            1.20044424494685        1.74921617566092        0.87192525958078
H            1.03135925264637        2.68511061133146       -0.65639715680456
H            3.01736958372623        0.33718570999837        1.88298787508048
H            2.87993221427631       -1.71046165660864        3.23882604219260
H            2.39340217419753       -3.87539137444284        2.14466688466562
H            2.03750299322085       -3.97094250229858       -0.28088311242425
H            1.47686289770808       -1.14043123138724       -2.41514787480649
H            3.06747027065918       -1.88186448628966       -2.58090224443267
H            1.64378718808471       -2.90276545239984       -2.34022864770438
H            2.85593492637659        3.38314530412575        0.66524627139782
H            4.73565202465979        4.48538223413825        1.77447263270216
H            6.99494544263169        3.48848379046781        1.66422795747560
H            7.35198332767329        1.40558928381845        0.40484961522022
H            5.26306276353958       -0.94013025269335       -0.34168771937322
H            6.58908835980840       -0.16514180989965       -1.21670453267825
H            4.93065150694735       -0.07469432904062       -1.84180728500725
H           -1.21477468076856        2.86729303224551        0.89088085238666
H           -3.04334595969757        4.46686086276720        0.58164312002588
H           -4.41975922774791        4.40297578813087       -1.46115910511854
H           -3.93520158637523        2.74224201782092       -3.22125063645031
H           -2.09266277111600        1.12513971359819       -2.91071438493731
H           -2.67839780636772        0.77289655732159        2.80413391567921
H           -4.39868941312787        2.42072060259951        3.40330478961676
H           -6.28961601915198        2.83964631029102        1.86655943111506
H           -6.47604682256808        1.55947248799717       -0.22544475498421
H           -4.81469945306019       -1.40450664725599       -0.92882371517181
H           -5.71409646305263       -0.09080378681106       -1.70954544391498
H           -3.94891417177809       -0.16326660335686       -1.83216460316065
