76
 energy: -103.474678883200 gnorm: 0.000074942311 xtb: 6.7.1 (edcfbbe)
C           -3.10678055971664        2.65037610502334       -1.33065781769669
C           -3.47486173478561        1.31094314051881       -1.88917838729919
C           -3.90352342012368        1.22440534223087       -3.20999467972039
C           -4.29387476253424        0.01971938844597       -3.76119377687012
C           -4.26918297239111       -1.12977962792825       -2.98842057330255
C           -3.84248426984011       -1.06120916454789       -1.67751145816535
C           -3.43334723266477        0.14757263584197       -1.12039378768806
P           -2.85626073209986        0.18523613009971        0.63036409127850
C           -1.41731434861591       -0.97020566166639        0.41432264431357
P           -0.14026486127883       -0.05661188508672       -0.58811347531320
C            1.22236193757377       -1.30074447221836       -0.33078899383302
P            2.71166456855526       -0.75677031308151       -1.29932174609086
C            3.91505549381617       -2.08263343236094       -0.89017935915414
C            3.56143024506824       -3.28063398398338       -0.27889362210975
C            4.50665859627846       -4.26226187622252       -0.04000214388989
C            5.82071709633438       -4.06135465422069       -0.42065982777445
C            6.17778001236949       -2.88194334671927       -1.05062044023604
C            5.24164162132649       -1.89009556851091       -1.30008542411974
C            5.64701351627746       -0.62461600799325       -1.98725997589730
C            3.31130385938289        0.51277824321751       -0.10594925778692
C            3.78974002024632        0.13574848909975        1.14287942717087
C            4.22208056523751        1.08712083839394        2.04692523616879
C            4.17909426467758        2.42697173988530        1.70382155198656
C            3.71073701219205        2.80593478450406        0.45890115201766
C            3.27488100843599        1.86227720192028       -0.46061171321942
C            2.78868028082559        2.28014336970581       -1.81301950577275
C            0.28025008960353        1.23193806522281        0.64967469571894
C            0.16478123376389        2.55298873406596        0.23160839699018
C            0.42545539337412        3.59504362607717        1.10135212676672
C            0.81135920108561        3.32536756253040        2.40228956025370
C            0.93144269036753        2.01290270756971        2.82670383772067
C            0.66439089995192        0.97122485865075        1.95893547613633
C           -4.11971515535187       -0.94244014473505        1.33977543296534
C           -3.81063514563459       -2.18691674112249        1.87844558163831
C           -4.79309930233271       -2.98006947445437        2.44327273954345
C           -6.10055528262541       -2.53166941428055        2.48619870674503
C           -6.41269787572503       -1.28321371061697        1.97731022350458
C           -5.43839327797337       -0.47404548915509        1.41258405645647
C           -5.79772283445821        0.87551583264438        0.87599295507297
H           -4.00519415185815        3.25014193442142       -1.18017048088673
H           -2.59635982496362        2.54641460771218       -0.37507937547847
H           -2.45985569331151        3.18720172183398       -2.02203108081994
H           -3.93291179709746        2.12340775317318       -3.81008450488148
H           -4.62331033911041       -0.02395462225277       -4.78908845774137
H           -4.58399915823252       -2.07496130585798       -3.40642675717590
H           -3.84205428880294       -1.95713966849457       -1.07081625279213
H           -1.70618887665759       -1.87665762774023       -0.12763329652792
H           -1.00950639609847       -1.22924553884696        1.39688907553115
H            0.85931535130707       -2.22768828765357       -0.79101857270615
H            1.44736435416305       -1.46781905633306        0.72722171321253
H            2.53906902048718       -3.46159161381768        0.01827923977296
H            4.21393713758869       -5.18415280391774        0.44181358907942
H            6.56379436446551       -4.82307374706017       -0.23551879862460
H            7.20266281268555       -2.73003719288676       -1.35976095840295
H            5.75136402740069        0.18343813291286       -1.26146436425737
H            6.59587948770250       -0.74865644526073       -2.50432434850788
H            4.88407869259157       -0.32776978642667       -2.70881921246531
H            3.83254345999436       -0.91294407868268        1.40654003845492
H            4.59136619883843        0.78371110652717        3.01590869166845
H            4.51201464806137        3.17738791085590        2.40589902511777
H            3.68121652046467        3.85390615487376        0.19535419896429
H            2.56773017318365        3.34450774640630       -1.83437635568224
H            1.89027745505331        1.72377957720366       -2.08083914859280
H            3.54899219996817        2.06978496379086       -2.56609477713615
H           -0.12875147412382        2.75455514235891       -0.78890271147767
H            0.32854828861709        4.61737891477454        0.76491759968644
H            1.01933067425904        4.13504310287493        3.08639314835216
H            1.23388879666992        1.79966518359651        3.84201401576974
H            0.76398156325368       -0.04479518984069        2.31512427098257
H           -2.79393393104690       -2.55091509806473        1.86226771857435
H           -4.53505905130049       -3.94711487171046        2.85065456724021
H           -6.87327788924603       -3.14747208969599        2.92248730395165
H           -7.43230091084886       -0.92638860038396        2.02385560554158
H           -6.72162174286497        1.23736041510498        1.32200295365496
H           -4.99855134351902        1.58937713573852        1.08201719535974
H           -5.93228719631136        0.82832329417285       -0.20569342328942
