  65
  -101.158415860200       0.185199510173441      !
 N        -10.6422662755        0.0524586398       -0.0338459537
 C         -9.4955576365        0.0390988933       -0.0254051929
 C         -8.0823230739        0.0269166445       -0.0188092094
 C         -7.3891264183        0.2088915035        1.1788700600
 C         -6.0094027638        0.1981405815        1.1793119826
 C         -5.2999808536        0.0019562517       -0.0041188387
 C         -3.8224898604       -0.0095548593        0.0046022172
 C         -3.1200110391        1.1817116337        0.2350879816
 C         -3.7861554821        2.4197454668        0.4344540670
 C         -3.0904769149        3.5648027226        0.6722158607
 C         -1.6824166715        3.5443104374        0.7265674887
 C         -1.0049896406        2.3827411771        0.5193900457
 C         -1.6907840215        1.1687321330        0.2517674787
 C         -1.0020384027       -0.0293452368        0.0192155010
 C          0.4768070332       -0.0332245088        0.0179383330
 C          1.1794230301        0.5146740503       -1.0509982654
 C          2.5600090551        0.5152881714       -1.0602555660
 C          3.2665322882       -0.0158500262        0.0157993597
 N          4.6668064335        0.0005448474        0.0143574279
 C          5.4909802339       -1.0780373300        0.2706644069
 C          5.1622719497       -2.3962511307        0.5523579272
 C          6.1963844508       -3.2922071372        0.7457904012
 C          7.5291445960       -2.8970394414        0.6534343235
 C          7.8625279126       -1.5925820175        0.3488706196
 C          6.8405168314       -0.6734450236        0.1509338900
 C          6.8201739921        0.7213066129       -0.1904209386
 C          7.8148927390        1.6623303696       -0.4213280221
 C          7.4434557079        2.9592845799       -0.7138214673
 C          6.1002581437        3.3261260897       -0.7605624814
 C          5.0928829482        2.4078221274       -0.5347535321
 C          5.4592674342        1.0964345296       -0.2673074672
 C          2.5685983249       -0.5596417880        1.0908633870
 C          1.1874605018       -0.5759224503        1.0836879200
 C         -1.7046173218       -1.2180988935       -0.2178775872
 C         -1.0330031037       -2.4421253075       -0.4757138336
 C         -1.7245710051       -3.5942058016       -0.6892808486
 C         -3.1334137142       -3.5942614871       -0.6526116653
 C         -3.8155199101       -2.4391894881       -0.4238746853
 C         -3.1341764442       -1.2107694499       -0.2166268269
 C         -6.0001153522       -0.1816195562       -1.1950264635
 C         -7.3798319190       -0.1673992320       -1.2091114792
 H         -7.9387359898        0.3568100920        2.0968787124
 H         -5.4672426046        0.3365138140        2.1034465792
 H         -4.8651201649        2.4402242310        0.3909544329
 H         -3.6121970953        4.4982843372        0.8229477675
 H         -1.1475018638        4.4599964417        0.9307505878
 H          0.0741020406        2.3656354781        0.5586785812
 H          0.6337781593        0.9301470272       -1.8856833299
 H          3.0991656129        0.9158891221       -1.9054915304
 H          4.1332718287       -2.7184373039        0.6079929715
 H          5.9657400057       -4.3233334462        0.9700345704
 H          8.3085533143       -3.6271216624        0.8141411066
 H          8.8948681592       -1.2889283780        0.2610570413
 H          8.8559020101        1.3811736004       -0.3679044668
 H          8.2010051706        3.7058555128       -0.9004394266
 H          5.8400932531        4.3523044701       -0.9749488344
 H          4.0557398776        2.7075372335       -0.5557368298
 H          3.1133342996       -0.9535639783        1.9355513933
 H          0.6484849935       -0.9980836256        1.9193903126
 H          0.0466498496       -2.4402184521       -0.5008964466
 H         -1.2006932029       -4.5181020820       -0.8849368982
 H         -3.6666519572       -4.5201956139       -0.8095973456
 H         -4.8951709271       -2.4439157344       -0.3939153252
 H         -5.4509547913       -0.3292791307       -2.1135104335
 H         -7.9223213538       -0.3053444792       -2.1329637880
  65
  -101.158153519800       0.140306093677915      !
 N        -10.6414042360        0.0226772080        0.0935639505
 C         -9.4951595736        0.0204247602        0.0741363419
 C         -8.0822564989        0.0150199732        0.0504209045
 C         -7.3644190425        0.0105596565        1.2474646047
 C         -5.9850379907        0.0059420582        1.2180656677
 C         -5.2994420679        0.0021622305        0.0043304441
 C         -3.8226225139       -0.0043092823       -0.0158785787
 C         -3.1164634269        1.1233414103        0.4273520491
 C         -3.7807062317        2.3035074301        0.8543107663
 C         -3.0842348755        3.3825642023        1.3037173790
 C         -1.6769720179        3.3465043675        1.3612551902
 C         -1.0013341632        2.2438530125        0.9383477644
 C         -1.6871446231        1.1069003221        0.4352186774
 C         -1.0004113852       -0.0232648114       -0.0314238072
 C          0.4769609916       -0.0331519396       -0.0318957454
 C          1.1886939827        0.7954152945       -0.8948523907
 C          2.5692320346        0.7949976517       -0.8940825284
 C          3.2678137500       -0.0261949724       -0.0127285049
 N          4.6680621271       -0.0094434394        0.0039726464
 C          5.4572374210        1.1214413324        0.0825895519
 C          5.0855367653        2.4515199280        0.2161318305
 C          6.0895418884        3.3967913422        0.3003246613
 C          7.4342101047        3.0352064449        0.2622036546
 C          7.8102614115        1.7113331062        0.1551564156
 C          6.8190229682        0.7427603593        0.0693849444
 C          6.8431905202       -0.6898703429       -0.0268493392
 C          7.8674238547       -1.6245741264       -0.0976679360
 C          7.5374718039       -2.9603283595       -0.2091883735
 C          6.2062924575       -3.3668038594       -0.2648637424
 C          5.1699158843       -2.4557208572       -0.1962754660
 C          5.4948820401       -1.1137209192       -0.0604617400
 C          2.5619784675       -0.8571379562        0.8532055063
 C          1.1810700884       -0.8640227135        0.8349818105
 C         -1.7074865358       -1.1409546108       -0.4966637517
 C         -1.0414981663       -2.2837824855       -1.0125438599
 C         -1.7362024244       -3.3722731718       -1.4414662104
 C         -3.1434494836       -3.3889050203       -1.3727881977
 C         -3.8210371205       -2.3059367898       -0.9041569915
 C         -3.1368910843       -1.1385578278       -0.4735411343
 C         -6.0244887178        0.0053987549       -1.1860146626
 C         -7.4042046671        0.0142392104       -1.1694594992
 H         -7.8948809927        0.0093199884        2.1883297469
 H         -5.4242043247        0.0016373815        2.1417173562
 H         -4.8593685351        2.3353547208        0.8105263076
 H         -3.6046769463        4.2736733326        1.6220621775
 H         -1.1407045998        4.2048825410        1.7375976566
 H          0.0771210434        2.2171433859        0.9824352053
 H          0.6499195098        1.4349872159       -1.5789854140
 H          3.1149120247        1.4225694979       -1.5826179423
 H          4.0467560841        2.7413731863        0.2635877315
 H          5.8255835997        4.4393640397        0.4003222383
 H          8.1891319316        3.8044638443        0.3271466486
 H          8.8520519235        1.4291364459        0.1431143035
 H          8.8989299656       -1.3073942216       -0.0705983919
 H          8.3187619834       -3.7036579362       -0.2644438091
 H          5.9791474031       -4.4175843224       -0.3690891168
 H          4.1422025166       -2.7802219528       -0.2588907234
 H          3.1008693738       -1.4823569866        1.5492540244
 H          0.6363793923       -1.5057922434        1.5123147687
 H          0.0368981229       -2.2709256382       -1.0648488758
 H         -1.2154267642       -4.2331041708       -1.8339970014
 H         -3.6790061671       -4.2692963163       -1.6958389285
 H         -4.8996917317       -2.3228519686       -0.8531420478
 H         -5.4947994750        0.0087997162       -2.1274752579
 H         -7.9656039364        0.0204592137       -2.0921737439
  65
  -101.158052236000       0.126046189698850      !
 N        -10.6347975819        0.1654788022       -0.1971524429
 C         -9.4892414468        0.1298347913       -0.1550392855
 C         -8.0776478919        0.0874777515       -0.1042436294
 C         -7.4347087703       -0.4867361548        0.9932542676
 C         -6.0560586185       -0.5246635033        1.0367749849
 C         -5.2976648424        0.0092434843       -0.0032274868
 C         -3.8216790014       -0.0253303263        0.0445520140
 C         -3.1061801708        1.1701221022        0.2048661045
 C         -3.7613240445        2.4175542746        0.3805040184
 C         -3.0552384178        3.5683658803        0.5498257647
 C         -1.6467529682        3.5418785828        0.5696572035
 C         -0.9806477107        2.3651769502        0.4180251317
 C         -1.6772617878        1.1434475719        0.2233842575
 C         -1.0003643731       -0.0762766516        0.0782342582
 C          0.4770717614       -0.0880365064        0.0584228989
 C          1.1618468713        0.4635022083       -1.0211285440
 C          2.5416328488        0.4745239241       -1.0498369684
 C          3.2669453963       -0.0536331211        0.0152042923
 N          4.6667989527       -0.0129730295       -0.0026254192
 C          5.5166460407       -1.0776454832        0.2229498775
 C          5.2189189513       -2.4082588419        0.4792473813
 C          6.2739172031       -3.2857944187        0.6408115451
 C          7.5965423603       -2.8596951102        0.5428539324
 C          7.8987932411       -1.5415880810        0.2656364402
 C          6.8555779220       -0.6404499284        0.0995386856
 C          6.8011735632        0.7610349725       -0.2091129655
 C          7.7715993628        1.7306658833       -0.4247354986
 C          7.3676074636        3.0250484268       -0.6834681073
 C          6.0160285991        3.3611824522       -0.7128807317
 C          5.0323440178        2.4142763982       -0.5017813416
 C          5.4317083301        1.1064746073       -0.2665439832
 C          2.5885605633       -0.6101708815        1.0959380643
 C          1.2073451094       -0.6324720031        1.1103769736
 C         -1.7166565293       -1.2726034210       -0.0656239858
 C         -1.0598735696       -2.5204745059       -0.2304245170
 C         -1.7641912942       -3.6742226958       -0.3855879022
 C         -3.1729010834       -3.6494839041       -0.4036114651
 C         -3.8411311140       -2.4722645932       -0.2650914507
 C         -3.1462959455       -1.2475579192       -0.0821714425
 C         -5.9482989578        0.5824019550       -1.0946697019
 C         -7.3260990403        0.6225501029       -1.1515476055
 H         -8.0222708781       -0.8968973582        1.8015439004
 H         -5.5534989911       -0.9641727991        1.8861869735
 H         -4.8410307927        2.4391737152        0.3879020391
 H         -3.5691127827        4.5089931468        0.6818542252
 H         -1.1020834444        4.4625841900        0.7179272745
 H          0.0981947458        2.3427482673        0.4552965696
 H          0.6015805221        0.8760721269       -1.8476731522
 H          3.0664433867        0.8832775132       -1.9002544070
 H          4.1973709097       -2.7523944009        0.5399958690
 H          6.0683082110       -4.3264408947        0.8443565458
 H          8.3930115063       -3.5762602479        0.6779818293
 H          8.9233243717       -1.2137519352        0.1746522128
 H          8.8192410088        1.4731291524       -0.3864517261
 H          8.1059540377        3.7935758056       -0.8572822582
 H          5.7304052438        4.3857511074       -0.9008632380
 H          3.9881645576        2.6889064220       -0.5092574426
 H          3.1486100799       -1.0066114824        1.9295940313
 H          0.6841867034       -1.0573597697        1.9548183670
 H          0.0197493398       -2.5364857284       -0.2384670799
 H         -1.2500714625       -4.6160266083       -0.5086465515
 H         -3.7169607658       -4.5725418540       -0.5391222948
 H         -4.9204254537       -2.4552992947       -0.2992802188
 H         -5.3611921967        0.9932678799       -1.9030410968
 H         -7.8295086674        1.0641588187       -1.9991648848
  65
  -101.158019207700       0.121716923318211      !
 N        -10.6269156931       -0.2694051241        0.2503393302
 C         -9.4829089412       -0.2134285549        0.1972938974
 C         -8.0726573253       -0.1475162471        0.1340234953
 C         -7.3156118225       -0.2815029435        1.2988331963
 C         -5.9391571790       -0.2173393346        1.2308734736
 C         -5.2958510922       -0.0259269233        0.0095060989
 C         -3.8202738423        0.0307359453       -0.0484394370
 C         -3.1473545059        1.1435647686        0.4748285956
 C         -3.8467305923        2.2554521433        1.0138290151
 C         -3.1817788880        3.3367166352        1.5039668952
 C         -1.7736450353        3.3794370145        1.4737591122
 C         -1.0660090818        2.3382785086        0.9571916777
 C         -1.7187908336        1.1848229383        0.4482245746
 C         -1.0003638076        0.1102881996       -0.0946698586
 C          0.4771497819        0.1275591865       -0.0761593279
 C          1.2096109801        0.2447497236       -1.2536956469
 C          2.5905437982        0.2206154585       -1.2308241606
 C          3.2665480247        0.0829750618       -0.0216100193
 N          4.6658528949        0.0284633872        0.0081876004
 C          5.4152156848       -0.9420244835        0.6444750786
 C          4.9965885809       -2.0686476179        1.3377785303
 C          5.9669212484       -2.9024981027        1.8593915178
 C          7.3236405859       -2.6337898997        1.6924824080
 C          7.7460281684       -1.5274951571        0.9830256832
 C          6.7893725448       -0.6742979217        0.4488720019
 C          6.8633150871        0.5221330467       -0.3420282042
 C          7.9193242899        1.2773382313       -0.8345593713
 C          7.6355861678        2.4158378664       -1.5618317306
 C          6.3192030502        2.8118577399       -1.7878745703
 C          5.2517215087        2.0773063014       -1.3080752607
 C          5.5303738677        0.9196737806       -0.5958757748
 C          2.5395535057       -0.0140049492        1.1620062236
 C          1.1595914217        0.0053048672        1.1309878493
 C         -1.6749437089       -0.9959356887       -0.6314860485
 C         -0.9769280886       -2.1084431902       -1.1711432115
 C         -1.6419720015       -3.1823992720       -1.6768067153
 C         -3.0503854852       -3.2186533715       -1.6604893740
 C         -3.7574535883       -2.1811622464       -1.1360685412
 C         -3.1040761019       -1.0349096494       -0.6111734824
 C         -6.0591517512        0.1058543617       -1.1486488516
 C         -7.4367776126        0.0487990340       -1.0927716023
 H         -7.8135457801       -0.4340729241        2.2450670177
 H         -5.3474053616       -0.3222142961        2.1285522211
 H         -4.9265801245        2.2339568649        1.0200110502
 H         -3.7283268017        4.1750260069        1.9100217749
 H         -1.2627273886        4.2506592545        1.8561426810
 H          0.0124049980        2.3789552207        0.9180913089
 H          0.6879620835        0.3480839878       -2.1942374059
 H          3.1521329560        0.2874389064       -2.1506354694
 H          3.9478581122       -2.2957204441        1.4580269161
 H          5.6662324169       -3.7842059218        2.4060384715
 H          8.0511341787       -3.3088615593        2.1180256048
 H          8.7972131560       -1.3281092391        0.8391541775
 H          8.9393508352        0.9780950645       -0.6461362709
 H          8.4420912255        3.0159418939       -1.9561196231
 H          6.1285764259        3.7152978703       -2.3483082291
 H          4.2355144452        2.4022328344       -1.4742756488
 H          3.0629358582       -0.0958429739        2.1028326897
 H          0.5980028871       -0.0786039765        2.0501720643
 H          0.1026142069       -2.0906369231       -1.1686793296
 H         -1.0956918634       -4.0196261159       -2.0854449757
 H         -3.5625529314       -4.0823525961       -2.0580448422
 H         -4.8363233691       -2.2206030889       -1.1069257901
 H         -5.5615314574        0.2593736556       -2.0951338275
 H         -8.0289836654        0.1546903483       -1.9899244893
  65
  -101.157963737000       0.114777932455506      !
 N        -10.6040958777       -0.4170241819        0.3736865904
 C         -9.4665243566       -0.3083302339        0.2765797080
 C         -8.0598751805       -0.2077189032        0.1835492650
 C         -7.3231676974        0.2896183852        1.2596114604
 C         -5.9497983067        0.3810513497        1.1640053917
 C         -5.2899257918       -0.0244594112        0.0056822632
 C         -3.8151590549        0.0468678956       -0.0677550515
 C         -3.1791283882        1.2885680727       -0.1962042986
 C         -3.9150896788        2.4961450627       -0.3227928885
 C         -3.2845684911        3.6937974452       -0.4627862990
 C         -1.8768175343        3.7582846880       -0.4922169979
 C         -1.1346956474        2.6230992839       -0.3824418440
 C         -1.7513342470        1.3537056827       -0.2281559695
 C         -0.9985261513        0.1762506373       -0.1321882502
 C          0.4787073133        0.2276161226       -0.1317860317
 C          1.2026348796       -0.2482759723       -1.2212810595
 C          2.5824282749       -0.2744134423       -1.1917755436
 C          3.2659830452        0.1612137760       -0.0592875242
 N          4.6619049727        0.0567473952       -0.0048306785
 C          5.3787837675       -1.0928733916       -0.2746914245
 C          4.9221759456       -2.3615215009       -0.6020641474
 C          5.8619014165       -3.3561298852       -0.7923728538
 C          7.2251491793       -3.1043950911       -0.6544802831
 C          7.6838773456       -1.8500043875       -0.3054645369
 C          6.7581624437       -0.8338621890       -0.1074680933
 C          6.8695875557        0.5445670772        0.2797604931
 C          7.9475763632        1.3715202334        0.5659905097
 C          7.7008904917        2.6883665218        0.8987634870
 C          6.4003853041        3.1864578083        0.9359671338
 C          5.3114995325        2.3838649058        0.6539139659
 C          5.5518263294        1.0544395095        0.3380887636
 C          2.5490983108        0.6683737968        1.0205562705
 C          1.1688334934        0.7060531028        0.9778369003
 C         -1.6364040497       -1.0681557269       -0.0201770013
 C         -0.9025609932       -2.2782511084        0.0947887345
 C         -1.5324032629       -3.4781440238        0.2165649164
 C         -2.9395079458       -3.5426180465        0.2464936471
 C         -3.6804074449       -2.4050773799        0.1551686424
 C         -3.0638557516       -1.1339781512        0.0121484609
 C         -6.0331120080       -0.5150412693       -1.0657728507
 C         -7.4076563675       -0.6060345654       -0.9842380860
 H         -7.8340367271        0.5971593068        2.1602376213
 H         -5.3730502907        0.7621193977        1.9941085577
 H         -4.9942009638        2.4464872220       -0.3153184111
 H         -3.8577753226        4.6038666233       -0.5610477798
 H         -1.3945801210        4.7171199241       -0.6125117181
 H         -0.0563566813        2.6687048137       -0.4219631200
 H          0.6741895092       -0.5998691446       -2.0955812900
 H          3.1403551397       -0.6347275119       -2.0431137409
 H          3.8669271970       -2.5710109476       -0.6942215973
 H          5.5315365775       -4.3518055793       -1.0496287882
 H          7.9282864798       -3.9082269759       -0.8142418134
 H          8.7392643660       -1.6595412376       -0.1816778964
 H          8.9559526818        0.9882359831        0.5244288560
 H          8.5250366270        3.3475049126        1.1276777587
 H          6.2399390395        4.2243273123        1.1884670802
 H          4.3084573697        2.7832929728        0.6699238694
 H          3.0767626489        1.0053675213        1.9002499884
 H          0.6134709714        1.0839311746        1.8240593949
 H          0.1759537053       -2.2298251066        0.0910591276
 H         -0.9589242355       -4.3893283289        0.3013879981
 H         -3.4236513179       -4.5021660315        0.3521519976
 H         -4.7584703514       -2.4559457310        0.1948617520
 H         -5.5223409012       -0.8251727904       -1.9657434726
 H         -7.9843790607       -0.9864414896       -1.8145329552
  65
  -101.157899359300       0.107219173440458      !
 N        -10.6143814093        0.3657572951       -0.3323447936
 C         -9.4727250478        0.2876731896       -0.2598866036
 C         -8.0654140560        0.1932113214       -0.1726925212
 C         -7.4516494716        0.0238436624        1.0692920312
 C         -6.0763846713       -0.0591695243        1.1482103199
 C         -5.2932039808        0.0207541750       -0.0016195802
 C         -3.8198855533       -0.0533899296        0.0773600566
 C         -3.0985832889        1.0089097434        0.6410287820
 C         -3.7446821890        2.1634303567        1.1567289983
 C         -3.0322995063        3.1952937959        1.6848824580
 C         -1.6246469880        3.1459927550        1.7133268831
 C         -0.9657867835        2.0659518177        1.2125645362
 C         -1.6698798932        0.9591464376        0.6691434997
 C         -1.0006124264       -0.1511629013        0.1341795522
 C          0.4769509843       -0.1684206067        0.1045949421
 C          1.1461077032       -0.0310776568       -1.1083728917
 C          2.5253862108       -0.0001509375       -1.1530684184
 C          3.2650368372       -0.1001530340        0.0224705724
 N          4.6630722258       -0.0261587559       -0.0212607910
 C          5.5474566601       -0.9089860225        0.5660321024
 C          5.2941857624       -2.0760767431        1.2722177139
 C          6.3778386759       -2.7977004798        1.7350430678
 C          7.6855072044       -2.3798718516        1.4979738370
 C          7.9439962545       -1.2319834137        0.7760744842
 C          6.8713775994       -0.4894696141        0.3005251666
 C          6.7708305203        0.7119418174       -0.4798719281
 C          7.7086040073        1.5833123810       -1.0182013701
 C          7.2618479368        2.6889901236       -1.7135088039
 C          5.8995031987        2.9393795167       -1.8619292021
 C          4.9476984658        2.0871086798       -1.3361199562
 C          5.3907707594        0.9607422205       -0.6577202435
 C          2.6024941583       -0.2576036624        1.2366767834
 C          1.2219765608       -0.2935030654        1.2731840041
 C         -1.7239925948       -1.2242800415       -0.4043014182
 C         -1.0756164393       -2.3828839371       -0.9070656817
 C         -1.7875185004       -3.4244674424       -1.4168074916
 C         -3.1955293281       -3.3764047113       -1.4457547024
 C         -3.8560396247       -2.2884726957       -0.9642242728
 C         -3.1521872226       -1.1751548531       -0.4340201061
 C         -5.9151573369        0.1831579450       -1.2385130302
 C         -7.2887346542        0.2718990979       -1.3297428599
 H         -8.0588010665       -0.0397486216        1.9604396021
 H         -5.5965712442       -0.1922203672        2.1069279412
 H         -4.8227275363        2.2141650270        1.1190657711
 H         -3.5398881547        4.0643664906        2.0765974441
 H         -1.0739391805        3.9780911306        2.1262839163
 H          0.1134615432        2.0382862360        1.2180686915
 H          0.5743851753        0.0569301159       -2.0208924069
 H          3.0385884637        0.0951243453       -2.0981936679
 H          4.2849118212       -2.4178569215        1.4466623278
 H          6.2070765738       -3.7083656131        2.2901988852
 H          8.5053295954       -2.9704557900        1.8790147107
 H          8.9572551276       -0.9159552083        0.5787239284
 H          8.7642004373        1.3981061906       -0.8884804017
 H          7.9743655263        3.3779444803       -2.1421764258
 H          5.5795181639        3.8213767236       -2.3970850141
 H          3.8944484015        2.3002195261       -1.4416025133
 H          3.1737458862       -0.3288286080        2.1501771118
 H          0.7107470599       -0.4103475077        2.2178642132
 H          0.0026434125       -2.4271221825       -0.8671891382
 H         -1.2804079900       -4.3004511572       -1.7934166620
 H         -3.7457219877       -4.2160093021       -1.8441889284
 H         -4.9358141334       -2.2634204623       -0.9695348758
 H         -5.3082798250        0.2473162322       -2.1299218610
 H         -7.7694605890        0.4035549926       -2.2880225814
  65
  -101.157728967300       8.952940814482512E-002 !
 N        -10.5906942274        0.4816696379       -0.4743414590
 C         -9.4533810250        0.3791015390       -0.3706068489
 C         -8.0512114537        0.2538127646       -0.2469427770
 C         -7.4736884547        0.0709873891        1.0102669235
 C         -6.1027733853       -0.0389634538        1.1254475415
 C         -5.2884272210        0.0269853316       -0.0031032923
 C         -3.8186477112       -0.0706220578        0.1092886485
 C         -3.0925921357        0.9823977147        0.6841921194
 C         -3.7324293442        2.1410292791        1.1984753303
 C         -3.0152442089        3.1642942601        1.7369245226
 C         -1.6083663734        3.1025531849        1.7760289776
 C         -0.9551744430        2.0188423139        1.2759287885
 C         -1.6644900512        0.9197254698        0.7236146847
 C         -1.0009017540       -0.1943335479        0.1889568042
 C          0.4763211561       -0.2139760526        0.1478787875
 C          1.1303362945       -0.0757736808       -1.0733914384
 C          2.5084811691       -0.0345278333       -1.1345623865
 C          3.2626839310       -0.1249945673        0.0324967077
 N          4.6588737696       -0.0315914951       -0.0287853221
 C          5.5647500035       -0.8996462957        0.5473548027
 C          5.3393833144       -2.0698544802        1.2576614359
 C          6.4404414501       -2.7738252655        1.7065703872
 C          7.7381218992       -2.3355020638        1.4521365643
 C          7.9688212518       -1.1842516159        0.7262527541
 C          6.8783335902       -0.4593133223        0.2643911819
 C          6.7485178968        0.7397749238       -0.5152134967
 C          7.6651722941        1.6256311924       -1.0661204903
 C          7.1918419314        2.7237141945       -1.7558116226
 C          5.8238447783        2.9524664219       -1.8862851589
 C          4.8926852943        2.0854104882       -1.3477589914
 C          5.3624792758        0.9664901776       -0.6750031457
 C          2.6159009989       -0.2886204477        1.2543056995
 C          1.2360018199       -0.3346171937        1.3073578114
 C         -1.7300360650       -1.2631980639       -0.3500443533
 C         -1.0882451181       -2.4291920129       -0.8439531081
 C         -1.8058367889       -3.4664104090       -1.3547351084
 C         -3.2130421132       -3.4052175823       -1.3955376944
 C         -3.8672799448       -2.3090796021       -0.9241440524
 C         -3.1573260865       -1.2009324257       -0.3914541548
 C         -5.8747015667        0.2011658718       -1.2558499840
 C         -7.2432683503        0.3168879162       -1.3831904068
 H         -8.1053013106        0.0192416464        1.8850846639
 H         -5.6512594121       -0.1827173925        2.0963588286
 H         -4.8095869324        2.2019708028        1.1516366454
 H         -3.5182968133        4.0363498080        2.1279093312
 H         -1.0535660425        3.9275114426        2.1979551256
 H          0.1236987482        1.9815023188        1.2910660396
 H          0.5471109648        0.0069897565       -1.9790401682
 H          3.0097668565        0.0634743959       -2.0857612978
 H          4.3380283982       -2.4271970743        1.4458666131
 H          6.2915363301       -3.6863553277        2.2648946108
 H          8.5721597893       -2.9127087707        1.8225523292
 H          8.9742030807       -0.8522763085        0.5154318928
 H          8.7252094092        1.4573181516       -0.9502774434
 H          7.8876570314        3.4238806565       -2.1936852118
 H          5.4829076195        3.8292588186       -2.4169373916
 H          3.8349419015        2.2819278340       -1.4392503060
 H          3.1984201918       -0.3549398097        2.1610518132
 H          0.7371829751       -0.4551373078        2.2582034865
 H         -0.0107097985       -2.4829606312       -0.7952153339
 H         -1.3040279663       -4.3487328494       -1.7235689355
 H         -3.7677724030       -4.2413017478       -1.7950938643
 H         -4.9467004697       -2.2736248777       -0.9384919390
 H         -5.2433246428        0.2526099590       -2.1310133374
 H         -7.6958885318        0.4583728671       -2.3536202978
  65
  -101.157594270500       7.763603554692909E-002 !
 N        -10.5620855897        0.6379558665       -0.5341891378
 C         -9.4310809329        0.4953701227       -0.4094956047
 C         -8.0350727790        0.3277478969       -0.2675405612
 C         -7.4366490545        0.4813940943        0.9839109378
 C         -6.0704518644        0.3352714323        1.1127291720
 C         -5.2813053286        0.0320469708        0.0049014926
 C         -3.8138403468       -0.0863427540        0.1235339554
 C         -3.0462987228        1.0591976817        0.3815152231
 C         -3.6366540285        2.3364224360        0.5728141888
 C         -2.8763450623        3.4340552022        0.8354833536
 C         -1.4741826953        3.3254885416        0.9196224802
 C         -0.8668917908        2.1258444452        0.7126548364
 C         -1.6214081972        0.9584428914        0.4229586360
 C         -1.0004991476       -0.2759619462        0.1835603317
 C          0.4761031967       -0.3221108652        0.1139033487
 C          1.1127944328        0.2195487128       -0.9997587567
 C          2.4894009202        0.2698487453       -1.0688017939
 C          3.2592737120       -0.2043189770       -0.0093026409
 N          4.6518961262       -0.0592761194       -0.0488014538
 C          5.5967510075       -1.0367978284        0.1887402885
 C          5.4245147394       -2.3858131713        0.4630374669
 C          6.5572262309       -3.1587322284        0.6337990828
 C          7.8343541031       -2.6123147597        0.5278478656
 C          8.0122231601       -1.2753094488        0.2338564846
 C          6.8893165160       -0.4778429036        0.0582800966
 C          6.7049056639        0.9092990877       -0.2646437903
 C          7.5802760675        1.9637066268       -0.4901761987
 C          7.0570016007        3.2126631948       -0.7582823969
 C          5.6798997254        3.4210484844       -0.7873272288
 C          4.7894403953        2.3880999577       -0.5668601611
 C          5.3094024653        1.1250141964       -0.3224640589
 C          2.6298644928       -0.7805131792        1.0901642701
 C          1.2497669257       -0.8441764059        1.1444932048
 C         -1.7683818065       -1.4256670747       -0.0359313421
 C         -1.1677905224       -2.6925718735       -0.2579650416
 C         -1.9250765169       -3.8052656778       -0.4572183077
 C         -3.3319082793       -3.7185308608       -0.4473597121
 C         -3.9463684575       -2.5194053913       -0.2563234091
 C         -3.1949567897       -1.3311783373       -0.0583367567
 C         -5.8894767825       -0.1338496236       -1.2385127015
 C         -7.2535728595        0.0140501506       -1.3807008639
 H         -8.0480695038        0.7181536996        1.8423325201
 H         -5.6026164463        0.4540562404        2.0792664674
 H         -4.7106556966        2.4271239021        0.5078130237
 H         -3.3424866378        4.3968547103        0.9840209520
 H         -0.8873043609        4.2033365916        1.1457763947
 H          0.2078251724        2.0417424424        0.7751232780
 H          0.5160049968        0.6067464583       -1.8127923594
 H          2.9782696582        0.6802592671       -1.9395374689
 H          4.4392182519       -2.8221969626        0.5310511332
 H          6.4502621086       -4.2113112945        0.8512573012
 H          8.6944741278       -3.2494912198        0.6703367043
 H          9.0015797559       -0.8541387209        0.1371952544
 H          8.6474966407        1.8059401284       -0.4507695965
 H          7.7200106553        4.0455663252       -0.9392126251
 H          5.2990837795        4.4127022253       -0.9829999528
 H          3.7242683274        2.5647888008       -0.5739426872
 H          3.2246622265       -1.1495597925        1.9123176427
 H          0.7638777855       -1.2744557403        2.0082687697
 H         -0.0895605822       -2.7553912212       -0.2605622676
 H         -1.4560720927       -4.7643578841       -0.6201451333
 H         -3.9179182734       -4.6139868042       -0.5930038388
 H         -5.0247392263       -2.4576685150       -0.2432897573
 H         -5.2781451763       -0.3694855676       -2.0974843439
 H         -7.7225606814       -0.1057637201       -2.3463230832
  65
  -101.156908329200       3.756873354386529E-002 !
 N        -10.6388227107       -0.0602987912        0.0184212802
 C         -9.4922482682       -0.0521874920        0.0186173825
 C         -8.0786982897       -0.0407275353        0.0138753368
 C         -7.3815879732        0.5287913271        1.0803338020
 C         -6.0017925228        0.5420972244        1.0662259651
 C         -5.2990628365       -0.0107622484       -0.0015194020
 C         -3.8186378155        0.0035767128       -0.0073537036
 C         -3.1362885953        1.1362212292       -0.4667486776
 C         -3.8294605817        2.2802429659       -0.9428689944
 C         -3.1567837576        3.3827105675       -1.3706597681
 C         -1.7480208587        3.4114885961       -1.3392221809
 C         -1.0467445072        2.3324472523       -0.8967367721
 C         -1.7068115352        1.1531799856       -0.4611688803
 C         -0.9988862171        0.0296672109       -0.0100149594
 C          0.4784973369        0.0411592608       -0.0096446848
 C          1.1874944782        0.0490452407       -1.2074606499
 C          2.5684074721        0.0506094031       -1.2097586604
 C          3.2694205776        0.0364997863       -0.0068393465
 N          4.6699328280        0.0202858485       -0.0063755887
 C          5.4652148273       -0.8535519559       -0.7218695005
 C          5.0999547186       -1.9056826845       -1.5493471568
 C          6.1088559952       -2.6508159825       -2.1286029543
 C          7.4517783888       -2.3683952123       -1.8885622983
 C          7.8210366350       -1.3383194531       -1.0470829243
 C          6.8247718845       -0.5748672011       -0.4528929171
 C          6.8411749820        0.5266304654        0.4683984204
 C          7.8600787851        1.2469455808        1.0776565548
 C          7.5227150746        2.2881980673        1.9186607239
 C          6.1894667078        2.6239873471        2.1433343723
 C          5.1582752865        1.9227940244        1.5484348788
 C          5.4906700616        0.8595807097        0.7211509816
 C          2.5662518301        0.0318937482        1.1949048869
 C          1.1855126193        0.0377320008        1.1895233434
 C         -1.6850571900       -1.1073096445        0.4418879691
 C         -1.0029997152       -2.2740114088        0.8774318808
 C         -1.6836161574       -3.3646325035        1.3239391127
 C         -3.0925459049       -3.3613981559        1.3585758586
 C         -3.7857810163       -2.2722426177        0.9295126631
 C         -3.1144590114       -1.1165518740        0.4503273093
 C         -6.0013122598       -0.5800180680       -1.0608642965
 C         -7.3811950037       -0.5963664493       -1.0596816757
 H         -7.9277913203        0.9553943104        1.9088019086
 H         -5.4551302431        0.9818328254        1.8876370995
 H         -4.9095110997        2.2586023543       -0.9586119972
 H         -3.6960743313        4.2458332406       -1.7316681342
 H         -1.2304298940        4.3003772487       -1.6683996665
 H          0.0322556920        2.3607079259       -0.8665894009
 H          0.6469178596        0.0527977615       -2.1429619103
 H          3.1117009291        0.0747385874       -2.1425356895
 H          4.0623077874       -2.1446755211       -1.7275641010
 H          5.8501544238       -3.4732478715       -2.7791510473
 H          8.2106509279       -2.9727787140       -2.3626065879
 H          8.8612983371       -1.1295471598       -0.8481052520
 H          8.8933075175        0.9960386178        0.8908066699
 H          8.2995988090        2.8588982375        2.4053302611
 H          5.9564871674        3.4535794382        2.7946480684
 H          4.1289660902        2.2029319513        1.7154007606
 H          3.1078519200        0.0065954938        2.1286286688
 H          0.6428049487        0.0354419557        2.1237506948
 H          0.0762087805       -2.2837972388        0.8446413861
 H         -1.1493927324       -4.2435529245        1.6536015195
 H         -3.6153746380       -4.2335136056        1.7224116545
 H         -4.8659682381       -2.2708853091        0.9470875160
 H         -5.4548665259       -1.0088445399       -1.8881418488
 H         -7.9274477667       -1.0347937108       -1.8818455771
