  92
       -138.24797142
 C         -8.7315927782       -1.8858877344        1.0936166197
 C         -7.8811399684       -0.8307554657        0.3630007531
 C         -8.7905463966        0.1982960032       -0.3330805539
 C         -7.0424885764       -1.5247747390       -0.6931887806
 C         -7.6712328398       -2.2270780416       -1.7120911125
 C         -6.9607689659       -2.8594230227       -2.7155285206
 C         -5.5799448252       -2.7816869622       -2.7176605817
 C         -4.9295694065       -2.0916807003       -1.7166683335
 C         -5.6449135535       -1.4702678699       -0.6886554162
 N         -4.9620139566       -0.7918166098        0.3084780677
 C         -3.5428218832       -0.8074411471        0.2992940747
 C         -2.8557190224       -1.9461836217        0.7238932647
 C         -1.4801856350       -1.9711302908        0.7187685439
 C         -0.7273460045       -0.8682999080        0.2949421883
 C          0.7272027732       -0.8695879048        0.2876840422
 C          1.4836230830       -1.9699054762        0.7118474298
 C          2.8590006273       -1.9436059012        0.7104475916
 C          3.5443878861       -0.8078102131        0.2737530195
 N          4.9615204821       -0.7846282766        0.2896764340
 C          5.6149424951       -0.0194357104        1.2458370514
 C          4.8733225966        0.7227152814        2.1698719781
 C          5.4970510549        1.4957482399        3.1260353040
 C          6.8780310828        1.5366860687        3.1861758867
 C          7.6137703679        0.7840434586        2.2903620517
 C          7.0118324472       -0.0028997860        1.3177589612
 C          7.8810649305       -0.8292633993        0.3893116756
 C          8.8130328120        0.1158940858       -0.3908166180
 C          8.7072632333       -1.8124682440        1.2386412398
 C          7.0536982797       -1.6189538013       -0.6063189940
 C          7.6941124616       -2.4202773683       -1.5416897618
 C          6.9963354370       -3.1388111035       -2.4943719568
 C          5.6170554402       -3.0452195790       -2.5336924586
 C          4.9555284277       -2.2587810335       -1.6145028290
 C          5.6567299713       -1.5557410901       -0.6300484856
 C          2.8243664292        0.2867441810       -0.1609542554
 C          1.4291208975        0.2698524508       -0.1541093333
 C          0.7107152910        1.4416578931       -0.6065452264
 N          1.3946659339        2.4895694549       -1.0236868604
 C          0.7094264734        3.5652364978       -1.4348304430
 C          1.4002956019        4.7076559768       -1.8930303369
 C          0.6986055373        5.8016508343       -2.3104217995
 C         -0.7099248488        5.8087352024       -2.2895705933
 C         -1.4102781432        4.7214832971       -1.8526871894
 C         -0.7181351146        3.5715196736       -1.4156173817
 N         -1.4017292544        2.5001305459       -0.9905344966
 C         -0.7161431771        1.4460806001       -0.5917068662
 C         -1.4319052163        0.2749467459       -0.1331073022
 C         -2.8274767550        0.2927743591       -0.1269322468
 C         -5.6243727211       -0.1235862449        1.3267397002
 C         -4.8892347544        0.5266950129        2.3221785586
 C         -5.5212161623        1.2003355996        3.3458517482
 C         -6.9027668385        1.2327381943        3.3996674413
 C         -7.6317986455        0.5757099616        2.4260263656
 C         -7.0219123185       -0.1105592044        1.3848653062
 H         -9.3663632424       -2.4243650901        0.3952994368
 H         -8.0826911228       -2.6041467203        1.5915914552
 H         -9.3673200781       -1.4219106935        1.8426669338
 H         -8.1822566777        0.9306627716       -0.8606306819
 H         -9.4452337427       -0.2856457544       -1.0526560662
 H         -9.4089109939        0.7228900519        0.3900943937
 H         -8.7492804766       -2.2843799832       -1.7301192054
 H         -7.4818426091       -3.3990922035       -3.4915664818
 H         -5.0052544023       -3.2549612782       -3.5000337022
 H         -3.8523571415       -2.0260779420       -1.7321715687
 H         -3.4170659627       -2.8076787396        1.0544222237
 H         -0.9867979216       -2.8684095352        1.0551707554
 H          0.9932211971       -2.8645353200        1.0596566464
 H          3.4218495589       -2.8018164460        1.0470190516
 H          3.7953741435        0.6899170397        2.1411528667
 H          4.9005093188        2.0624239369        3.8254168631
 H          7.3787072181        2.1400273647        3.9279849102
 H          8.6908678651        0.8119758342        2.3578124416
 H          9.4710307009       -0.4435136444       -1.0500037466
 H          9.4286531510        0.7011951791        0.2865817563
 H          8.2216635627        0.8005264480       -0.9960350599
 H          9.3321873695       -1.2806924636        1.9508163760
 H          8.0418492967       -2.4724652673        1.7922751583
 H          9.3504367183       -2.4226288495        0.6104684561
 H          8.7714822146       -2.4887897285       -1.5323545518
 H          7.5259705717       -3.7553381560       -3.2045828414
 H          5.0523433691       -3.5809382734       -3.2822319462
 H          3.8803372928       -2.1797463355       -1.6632963062
 H          3.3252726080        1.1775781160       -0.5065257951
 H          2.4789030483        4.6817494902       -1.9002305588
 H          1.2213095609        6.6784753092       -2.6634688054
 H         -1.2337913601        6.6912619910       -2.6262762099
 H         -2.4888463818        4.7067570496       -1.8289485878
 H         -3.3317937392        1.1861302935       -0.4606726074
 H         -3.8108673944        0.4999448536        2.2927404637
 H         -4.9313718919        1.6974256892        4.1015932052
 H         -7.4097386469        1.7583398295        4.1945383737
 H         -8.7095521015        0.6001960404        2.4858594646
