  59
  -97.9198585906000       0.536263145874890      !
 C         -0.3931607158        3.4336390999        1.5076479398
 C          0.3265818938        2.3139670436        1.8839996276
 C         -0.2138128321        1.0496792789        1.7317951741
 C         -1.4806056369        0.8790254902        1.1752251016
 C         -2.2246752468        2.0243951371        0.8591045084
 C         -1.6794463617        3.2870615175        1.0134885914
 O         -3.5110834301        1.9497046269        0.4006123171
 C         -4.0373927347        0.7040354366        0.1916544915
 C         -5.3345654295        0.6490732146       -0.2892404230
 C         -5.9199731197       -0.5717958274       -0.5812363337
 C         -5.1887766750       -1.7338691347       -0.4162398240
 C         -3.8941416192       -1.6860302238        0.0710699213
 C         -3.3035226300       -0.4725899936        0.4131971866
 N         -2.0188635737       -0.3865078802        0.9450917067
 C         -1.1178513463       -1.4647672035        0.8842526454
 C         -1.2996983538       -2.6866906242        1.5002362167
 C         -0.3299534797       -3.6743057389        1.3400951759
 C          0.8387575945       -3.4156076869        0.5871614391
 C          1.8553808146       -4.3396101132        0.3325829549
 C          2.9817240903       -3.9795729535       -0.4109105898
 C          3.1409788764       -2.6936479915       -0.8761677179
 C          2.1462126535       -1.7355268224       -0.6343231054
 N          2.3045766895       -0.3693375477       -0.9457277047
 C          3.2292638004        0.4067180038       -0.2493184923
 C          4.2792664880       -0.1538605573        0.4760397728
 C          5.1887660471        0.6463656202        1.1427039824
 C          5.0667231880        2.0255694123        1.1121822988
 C          4.0114541516        2.6018883264        0.4284877887
 C          3.0941309850        1.8056549134       -0.2411383235
 O          2.0551547103        2.4469142348       -0.8494239556
 C          1.1046918387        1.6749611033       -1.4504530268
 C         -0.0048224548        2.3185530184       -1.9713975853
 C         -0.9856148546        1.5887886992       -2.6230686991
 C         -0.8281050714        0.2218138669       -2.7962129979
 C          0.2740326908       -0.4264675901       -2.2783599727
 C          1.2406698361        0.2804332413       -1.5512350627
 C          0.9550053322       -2.0999482113        0.0448331793
 N         -0.0111265381       -1.1998997621        0.1598878806
 H          0.0328554618        4.4188168942        1.6134275616
 H          1.3166108501        2.4182446181        2.3026070486
 H          0.3494329745        0.1870454085        2.0475475087
 H         -2.2796915494        4.1401777039        0.7399855854
 H         -5.8628176936        1.5776122042       -0.4362538029
 H         -6.9334022395       -0.6078875359       -0.9483444108
 H         -5.6230544807       -2.6897326145       -0.6657511441
 H         -3.3267869836       -2.5964397201        0.1730514513
 H         -2.1645109051       -2.8586965928        2.1228350881
 H         -0.4470727996       -4.6331653076        1.8203455612
 H          1.7472149189       -5.3519363300        0.6920601842
 H          3.7367159059       -4.7224868783       -0.6209689214
 H          4.0064725464       -2.4168649835       -1.4597943802
 H          4.3701587554       -1.2264441956        0.5276978851
 H          5.9931346051        0.1846413761        1.6941881117
 H          5.7770569296        2.6500258055        1.6306135427
 H          3.8665957871        3.6703500134        0.4075618969
 H         -0.0831297973        3.3866566776       -1.8485409049
 H         -1.8590507505        2.0908007638       -3.0090132068
 H         -1.5740459536       -0.3448796140       -3.3324106423
 H          0.4074021857       -1.4855353220       -2.4298014741
  59
  -97.9197212740000       0.463736854125110      !
 C         -1.4893878892        1.8906004422        5.4101674968
 C         -0.9554687801        0.6190484616        5.3106296130
 C         -0.9464707079       -0.0456475812        4.0963940353
 C         -1.4801266659        0.5446328953        2.9544197040
 C         -1.9816717050        1.8516083120        3.0594111542
 C         -1.9914834005        2.5097923094        4.2774221574
 O         -2.4506502755        2.5488023271        1.9792341799
 C         -2.3989011557        1.9329093015        0.7589477056
 C         -2.8017235183        2.6715678363       -0.3398792037
 C         -2.7934118032        2.1011058431       -1.6025439478
 C         -2.4142581381        0.7794862734       -1.7536869174
 C         -2.0179162878        0.0345227353       -0.6575813849
 C         -1.9664243553        0.6074981707        0.6117289540
 N         -1.5155184215       -0.1054369367        1.7217458328
 C         -0.7256670261       -1.2446746121        1.4771743902
 C         -0.8759455018       -2.4633288379        2.1073559972
 C          0.0086636445       -3.4951731990        1.7998162854
 C          1.0345049668       -3.2995616275        0.8464508360
 C          2.0128443296       -4.2393946628        0.5107119032
 C          2.9930898906       -3.9437625000       -0.4385346189
 C          2.9936096907       -2.7392373473       -1.1054815430
 C          2.0130277476       -1.7786182721       -0.8160299016
 N          1.8534693310       -0.5947930257       -1.5634151923
 C          1.6189379550        0.5824723892       -0.8715906663
 C          2.0027582080        0.7289576098        0.4699016016
 C          1.6618023073        1.8634215630        1.1776261507
 C          0.9547002927        2.8877921549        0.5663424670
 C          0.6370570241        2.7988413324       -0.7797164541
 C          0.9722912765        1.6623132449       -1.4953424873
 O          0.6583916338        1.6395961622       -2.8225592696
 C          0.9077362132        0.4878648965       -3.5089679012
 C          0.5448130002        0.4714873386       -4.8477023701
 C          0.7162219935       -0.6742953457       -5.6029591013
 C          1.2274714900       -1.8143858534       -5.0058986156
 C          1.5927084212       -1.8052485399       -3.6723180979
 C          1.4699786405       -0.6492422345       -2.9029974675
 C          1.0633919232       -2.0219399657        0.2102450298
 N          0.2325029383       -1.0465010030        0.5502812629
 H         -1.5053087893        2.4071943453        6.3567667954
 H         -0.5392344803        0.1340547171        6.1801626763
 H         -0.5074690386       -1.0274403036        4.0266838709
 H         -2.3897623733        3.5113115458        4.3121109766
 H         -3.1157355917        3.6914172586       -0.1834649033
 H         -3.0966032021        2.6844780087       -2.4575847963
 H         -2.4296831940        0.3169556334       -2.7292851580
 H         -1.7459675142       -1.0004867952       -0.7844671692
 H         -1.6836206158       -2.6172603250        2.8067135843
 H         -0.0960785940       -4.4592380382        2.2724013042
 H          2.0281034474       -5.1885176755        1.0251010780
 H          3.7625937833       -4.6716460708       -0.6487619851
 H          3.7657859844       -2.5036584169       -1.8227541181
 H          2.5802838022       -0.0532120165        0.9355118916
 H          1.9409372813        1.9446601638        2.2172557050
 H          0.6692407930        3.7641757444        1.1270602327
 H          0.1195021171        3.5936387883       -1.2917883439
 H          0.1185961163        1.3681976671       -5.2686161313
 H          0.4349299079       -0.6798790714       -6.6441303573
 H          1.3397481491       -2.7228608219       -5.5771489414
 H          1.9637593176       -2.7070717785       -3.2142376812
