  59
        -98.26976299
 C         -5.8326038327       -0.6278765847        0.8056439570
 C         -5.0977297069       -1.7789664995        0.5893712775
 C         -3.8403766990       -1.7116188712        0.0142212595
 C         -3.2927573719       -0.4897570918       -0.3658997215
 C         -4.0310082067        0.6750874245       -0.1034529107
 C         -5.2896796488        0.6010120340        0.4684843978
 O         -3.5455013432        1.9280328693       -0.3627085529
 C         -2.2820756551        2.0216710027       -0.8785464153
 C         -1.7677452097        3.2928711425       -1.0651402549
 C         -0.5016725955        3.4590029243       -1.6029865088
 C          0.2304590490        2.3492810518       -1.9847987753
 C         -0.2820826438        1.0767525997       -1.8073805528
 C         -1.5301237761        0.8878334119       -1.2167843475
 N         -2.0429548373       -0.3857750784       -0.9745947199
 C         -1.1253303671       -1.4526512486       -0.9387692032
 C         -1.3066145093       -2.6748171674       -1.5538115811
 C         -0.3333116450       -3.6596507746       -1.3969641964
 C          0.8278230340       -3.4043885852       -0.6313745823
 C          1.8321712839       -4.3361142711       -0.3551020480
 C          2.9371675694       -3.9871870588        0.4237315060
 C          3.0929946474       -2.7042659139        0.8986320966
 C          2.1198552979       -1.7324771294        0.6216148188
 N          2.2852000649       -0.3688065653        0.9355408856
 C          1.2036263110        0.3083891841        1.4751556835
 C          0.1755058238       -0.3736849378        2.1430782592
 C         -0.9486138073        0.3000328330        2.5750421986
 C         -1.0687611865        1.6672534455        2.3768793497
 C         -0.0291881152        2.3733839410        1.7926262653
 C          1.0999766591        1.7039760628        1.3532190258
 O          2.1026418661        2.4519953672        0.8094515741
 C          3.1770313918        1.7870490482        0.2962771621
 C          4.1672019165        2.5633943408       -0.2877106629
 C          5.2659149089        1.9650753940       -0.8771645889
 C          5.3571261250        0.5835582632       -0.9046339965
 C          4.3747257079       -0.1968227177       -0.3234167834
 C          3.2805863939        0.3851717221        0.3148692362
 C          0.9444305220       -2.0888499931       -0.0894610272
 N         -0.0152125064       -1.1840456589       -0.2232395378
 H         -6.8159261914       -0.6784392339        1.2457502229
 H         -5.4985815599       -2.7410585473        0.8691110788
 H         -3.2680493437       -2.6135380387       -0.1288945546
 H         -5.8223662505        1.5211569677        0.6486191270
 H         -2.3751699213        4.1373376477       -0.7804063422
 H         -0.1001639881        4.4512956657       -1.7352321670
 H          1.2071261327        2.4682476924       -2.4296951659
 H          0.2882514254        0.2208656154       -2.1290595631
 H         -2.1774450081       -2.8505069457       -2.1669366673
 H         -0.4489627695       -4.6188122651       -1.8769252399
 H          1.7252391263       -5.3471634485       -0.7184319691
 H          3.6776954912       -4.7375399294        0.6576871548
 H          3.9367176056       -2.4422652522        1.5196963694
 H          0.2836274353       -1.4306066600        2.3256823902
 H         -1.7419316189       -0.2475663600        3.0609718516
 H         -1.9580457755        2.1887571051        2.6949148628
 H         -0.0776843679        3.4416107065        1.6572623527
 H          4.0443618696        3.6347028389       -0.2764383738
 H          6.0339640094        2.5741853922       -1.3269196212
 H          6.1952440971        0.1040857712       -1.3862190311
 H          4.4452268240       -1.2706327580       -0.3759827393
