  59
        -98.26976299
 C         -5.8326038327       -0.6278765847        0.8056439570
 C         -5.0977297069       -1.7789664995        0.5893712775
 C         -3.8403766990       -1.7116188712        0.0142212595
 C         -3.2927573719       -0.4897570918       -0.3658997215
 C         -4.0310082067        0.6750874245       -0.1034529107
 C         -5.2896796488        0.6010120340        0.4684843978
 O         -3.5455013432        1.9280328693       -0.3627085529
 C         -2.2820756551        2.0216710027       -0.8785464153
 C         -1.7677452097        3.2928711425       -1.0651402549
 C         -0.5016725955        3.4590029243       -1.6029865088
 C          0.2304590490        2.3492810518       -1.9847987753
 C         -0.2820826438        1.0767525997       -1.8073805528
 C         -1.5301237761        0.8878334119       -1.2167843475
 N         -2.0429548373       -0.3857750784       -0.9745947199
 C         -1.1253303671       -1.4526512486       -0.9387692032
 C         -1.3066145093       -2.6748171674       -1.5538115811
 C         -0.3333116450       -3.6596507746       -1.3969641964
 C          0.8278230340       -3.4043885852       -0.6313745823
 C          1.8321712839       -4.3361142711       -0.3551020480
 C          2.9371675694       -3.9871870588        0.4237315060
 C          3.0929946474       -2.7042659139        0.8986320966
 C          2.1198552979       -1.7324771294        0.6216148188
 N          2.2852000649       -0.3688065653        0.9355408856
 C          1.2036263110        0.3083891841        1.4751556835
 C          0.1755058238       -0.3736849378        2.1430782592
 C         -0.9486138073        0.3000328330        2.5750421986
 C         -1.0687611865        1.6672534455        2.3768793497
 C         -0.0291881152        2.3733839410        1.7926262653
 C          1.0999766591        1.7039760628        1.3532190258
 O          2.1026418661        2.4519953672        0.8094515741
 C          3.1770313918        1.7870490482        0.2962771621
 C          4.1672019165        2.5633943408       -0.2877106629
 C          5.2659149089        1.9650753940       -0.8771645889
 C          5.3571261250        0.5835582632       -0.9046339965
 C          4.3747257079       -0.1968227177       -0.3234167834
 C          3.2805863939        0.3851717221        0.3148692362
 C          0.9444305220       -2.0888499931       -0.0894610272
 N         -0.0152125064       -1.1840456589       -0.2232395378
 H         -6.8159261914       -0.6784392339        1.2457502229
 H         -5.4985815599       -2.7410585473        0.8691110788
 H         -3.2680493437       -2.6135380387       -0.1288945546
 H         -5.8223662505        1.5211569677        0.6486191270
 H         -2.3751699213        4.1373376477       -0.7804063422
 H         -0.1001639881        4.4512956657       -1.7352321670
 H          1.2071261327        2.4682476924       -2.4296951659
 H          0.2882514254        0.2208656154       -2.1290595631
 H         -2.1774450081       -2.8505069457       -2.1669366673
 H         -0.4489627695       -4.6188122651       -1.8769252399
 H          1.7252391263       -5.3471634485       -0.7184319691
 H          3.6776954912       -4.7375399294        0.6576871548
 H          3.9367176056       -2.4422652522        1.5196963694
 H          0.2836274353       -1.4306066600        2.3256823902
 H         -1.7419316189       -0.2475663600        3.0609718516
 H         -1.9580457755        2.1887571051        2.6949148628
 H         -0.0776843679        3.4416107065        1.6572623527
 H          4.0443618696        3.6347028389       -0.2764383738
 H          6.0339640094        2.5741853922       -1.3269196212
 H          6.1952440971        0.1040857712       -1.3862190311
 H          4.4452268240       -1.2706327580       -0.3759827393
  59
        -98.26950467
 C         -2.6034423217        2.1215470208        1.7142291105
 C         -2.2468623964        0.7898394460        1.8271061355
 C         -1.9101848554        0.0568254103        0.7032934891
 C         -1.9002571503        0.6510564910       -0.5578360979
 C         -2.3265246414        1.9822459218       -0.6658831575
 C         -2.6625155424        2.7111632757        0.4616029737
 O         -2.4402538414        2.6113436290       -1.8749908945
 C         -2.0560787734        1.9159520913       -2.9890809785
 C         -2.1619530719        2.5755857676       -4.2017688240
 C         -1.7401222191        1.9619741426       -5.3696834179
 C         -1.1855190896        0.6965414730       -5.3115285573
 C         -1.0836967521        0.0290166647       -4.1032727404
 C         -1.5433097418        0.6101948494       -2.9245841193
 N         -1.4963071598       -0.0453644575       -1.6962911761
 C         -0.7093742307       -1.1942960068       -1.4991606261
 C         -0.8904670161       -2.4007124260       -2.1451991441
 C         -0.0220752060       -3.4536390383       -1.8647083206
 C          1.0065108058       -3.2983835660       -0.9067803360
 C          1.9524650375       -4.2712682850       -0.5739449785
 C          2.9212830227       -4.0250821384        0.4016792703
 C          2.9437802834       -2.8339749815        1.0917422413
 C          2.0059791246       -1.8356371840        0.7919165283
 N          1.8706066130       -0.6562905397        1.5530609969
 C          1.3965042469       -0.7163521356        2.8622263090
 C          1.4031304789       -1.8953642165        3.6057215585
 C          0.9397776138       -1.9161641279        4.9083588978
 C          0.4472665426       -0.7638692420        5.4980015637
 C          0.3978649378        0.4090124642        4.7665082979
 C          0.8591629358        0.4372491739        3.4587333114
 O          0.7305472892        1.6186441380        2.7890613161
 C          1.1119445182        1.6442918806        1.4797081937
 C          0.8796842868        2.8099256863        0.7698006155
 C          1.2771977748        2.9048488756       -0.5538902656
 C          1.9525139059        1.8497169321       -1.1489139432
 C          2.1859604639        0.6845399173       -0.4481904037
 C          1.7265306995        0.5394516006        0.8673628878
 C          1.0665319334       -2.0303086691       -0.2533456771
 N          0.2675251159       -1.0259138965       -0.5842759302
 H         -2.8529200736        2.6972778788        2.5914686609
 H         -2.2308875593        0.3104237142        2.7946642373
 H         -1.6537251153       -0.9850036357        0.8028083642
 H         -2.9666756936        3.7379636392        0.3348235470
 H         -2.5693018794        3.5740386788       -4.2043720495
 H         -1.8324401080        2.4785183702       -6.3118983619
 H         -0.8277000426        0.2177522035       -6.2100019673
 H         -0.6283542292       -0.9469675492       -4.0678472295
 H         -1.7135953114       -2.5324070461       -2.8309341463
 H         -0.1510561214       -4.4079944641       -2.3508550934
 H          1.9475542895       -5.2117974227       -1.1041420498
 H          3.6608237318       -4.7822141031        0.6158963834
 H          3.6986156690       -2.6386404862        1.8389879725
 H          1.7608627357       -2.8037797666        3.1494601786
 H          0.9593608119       -2.8428967424        5.4607319230
 H          0.0874614500       -0.7794325394        6.5146572799
 H         -0.0066036447        1.3184469075        5.1816785934
 H          0.3808891944        3.6243839240        1.2697330763
 H          1.0754825280        3.8068990443       -1.1101959303
 H          2.2931516326        1.9326222139       -2.1697811571
 H          2.7284545304       -0.1284925644       -0.9031901649
