  84
       -133.66727176
 O          6.6627640311       -4.0913245356        1.0077050668
 C          6.5129458325       -2.9367616434        0.6598699520
 C          7.6703324506       -2.0571166824        0.3567347405
 C          8.8235466054       -2.6304747545       -0.1751449682
 C          9.9286592599       -1.8483446518       -0.4505247508
 C          9.9007019117       -0.4901954336       -0.1761920302
 C          8.7668834214        0.0824817233        0.3778496891
 C          7.6527953226       -0.6931863471        0.6411216001
 C          5.1602427496       -2.3409109874        0.5207643969
 C          4.1357861521       -2.8104711146        1.3417543407
 C          2.8603684711       -2.2974028159        1.2408574434
 C          2.5769996993       -1.3210465803        0.2865756233
 N          1.2856817395       -0.7992215703        0.1719213785
 C          0.1148855377       -1.5324983532        0.1176309829
 C         -0.0744360703       -2.9074661405        0.1076359430
 C         -1.3665882720       -3.3849436540        0.0268660079
 C         -2.4625089203       -2.5182933506       -0.0694570851
 N         -3.7596350173       -3.0478100205       -0.1414967543
 C         -4.8227534975       -2.6783868315        0.6575221466
 C         -4.8663116620       -1.7707317769        1.7061388572
 C         -6.0689773187       -1.6041079605        2.3652713621
 C         -7.2043495234       -2.3246935582        2.0007735899
 C         -7.1619326325       -3.2439709066        0.9718758973
 C         -5.9642051900       -3.4293872033        0.2939086894
 C         -5.5608240448       -4.2871629237       -0.7847178480
 C         -6.2284024842       -5.2255553092       -1.5606681114
 C         -5.5310176146       -5.8749013784       -2.5594425763
 C         -4.1885225176       -5.5888900238       -2.7983466406
 C         -3.5024957887       -4.6599717478       -2.0399446197
 C         -4.1921558748       -4.0203278648       -1.0198060649
 C         -2.2752613259       -1.1440433540       -0.0979971413
 C         -0.9834711819       -0.6504703901       -0.0008662549
 C         -0.4414375666        0.6788987920       -0.0121403862
 C         -1.0221067148        1.9353570860       -0.0930757856
 C         -0.1979541520        3.0497771048       -0.0373204632
 N         -0.7522556578        4.3366773976       -0.1049335490
 C         -0.3456929991        5.3480270552       -0.9511723692
 C          0.6317498235        5.3372501483       -1.9359900992
 C          0.8248015688        6.4941732947       -2.6659807889
 C          0.0625080477        7.6370163172       -2.4336733684
 C         -0.9270497890        7.6465437019       -1.4713588682
 C         -1.1407241379        6.4952766987       -0.7248273894
 C         -2.0693309773        6.1490321971        0.3141422343
 C         -3.0774137970        6.8467170121        0.9665721647
 C         -3.7902309233        6.2053613216        1.9594710263
 C         -3.4988974237        4.8900424888        2.3147420550
 C         -2.5011727848        4.1752911266        1.6805488368
 C         -1.7965864287        4.8068264758        0.6654954464
 C          1.1877567465        2.9048021238        0.1062829474
 C          1.7799070274        1.6603739004        0.1698881386
 C          0.9612523448        0.5419512491        0.0940404665
 C          3.5904984280       -0.8715701217       -0.5592124792
 C          4.8710736019       -1.3703134711       -0.4370916279
 H          8.8296925091       -3.6920487821       -0.3727594337
 H         10.8151479228       -2.2966985200       -0.8736574764
 H         10.7655053969        0.1216054219       -0.3863961862
 H          8.7522996264        1.1379500541        0.6067931006
 H          6.7776961388       -0.2476307570        1.0917958945
 H          4.3669312270       -3.5721815943        2.0711820932
 H          2.0807820403       -2.6351476653        1.9065891566
 H          0.7587767108       -3.5909992638        0.1588266682
 H         -1.5462869802       -4.4489893066        0.0472249180
 H         -3.9875894526       -1.2191963918        2.0056821785
 H         -6.1298520120       -0.9011749897        3.1831992110
 H         -8.1264256048       -2.1637399259        2.5392864141
 H         -8.0380845866       -3.8125112621        0.6986627845
 H         -7.2726337319       -5.4362332308       -1.3853417098
 H         -6.0308975036       -6.6097027001       -3.1729432914
 H         -3.6733035503       -6.1022891099       -3.5969441632
 H         -2.4669610917       -4.4321099273       -2.2439589070
 H         -3.1172180463       -0.4785460866       -0.2089742674
 H         -2.0895419667        2.0469931909       -0.2023971654
 H          1.2153156869        4.4509307668       -2.1355023089
 H          1.5804013622        6.5116185586       -3.4378356932
 H          0.2457244738        8.5223086103       -3.0245698588
 H         -1.5281792139        8.5271058962       -1.3016805633
 H         -3.2928636207        7.8707447558        0.7011466734
 H         -4.5802108630        6.7288466389        2.4770980904
 H         -4.0639746035        4.4193576588        3.1058274385
 H         -2.2713796389        3.1622651127        1.9751745447
 H          1.7965993196        3.7926931917        0.1842396038
 H          2.8473658464        1.5682029645        0.2984253556
 H          3.3602722500       -0.1452550441       -1.3240366488
 H          5.6440633951       -1.0299086143       -1.1101784187
