  75
       -117.99262771
 N         -7.3608337960        2.5987298093        2.0282020149
 C         -6.2657412947        2.5956861324        1.6423276505
 C         -4.9635324961        2.5855052633        1.1852366741
 C         -3.9666974814        1.7869251475        1.8347962630
 C         -2.6944120170        1.7598537588        1.3705355389
 C         -2.3094897922        2.5406882825        0.2354132871
 N         -1.0319503330        2.4471954808       -0.2678347274
 C         -0.3987914735        3.5542667049       -0.8262947912
 C          0.4665026738        3.3960507540       -1.9156956968
 C          1.0867576215        4.4941225401       -2.4709686721
 C          0.8520847272        5.7650530328       -1.9620888039
 C         -0.0132932649        5.9283998906       -0.8886292994
 C         -0.6364563050        4.8376593561       -0.3205986357
 C         -0.3723841442        1.2242801514       -0.2133041712
 C         -1.0876079314        0.0337115727       -0.4310479711
 C         -0.4505800325       -1.1875481991       -0.3147696662
 N         -1.1605950258       -2.3699491900       -0.5423662803
 C         -2.4079169809       -2.6773351870       -0.0270626576
 C         -3.2093896724       -1.9571683615        0.8472125219
 C         -4.4176947827       -2.5125317501        1.2240322178
 C         -4.8212260273       -3.7607103603        0.7567145230
 C         -4.0158902749       -4.4949048225       -0.0924500672
 C         -2.7994625792       -3.9553514382       -0.4868972248
 C         -1.7368670408       -4.4313498680       -1.3292361935
 C         -1.5567352368       -5.5900709056       -2.0709748229
 C         -0.4024120714       -5.7247497044       -2.8182001762
 C          0.5551300042       -4.7141103922       -2.8438573113
 C          0.3972316709       -3.5511348491       -2.1133949603
 C         -0.7461662741       -3.4223343569       -1.3376036953
 C          0.9089493790       -1.2462328697        0.0172754988
 C          1.6236103098       -0.0570211022        0.2253170139
 N          2.9823334910       -0.1147180333        0.5476522274
 C          3.9848905951        0.6340008746       -0.0414387094
 C          3.9140639951        1.5486739252       -1.0820914739
 C          5.0890715090        2.1429767613       -1.5023161600
 C          6.3121190436        1.8334832582       -0.9123328751
 C          6.3930640023        0.9058717534        0.1075539679
 C          5.2257353269        0.2962316105        0.5467627389
 C          4.9482885515       -0.6977509188        1.5458365714
 C          5.7435003537       -1.3865617779        2.4515035290
 C          5.1401067971       -2.2771042213        3.3176798829
 C          3.7610246021       -2.4714586120        3.2989099631
 C          2.9490367405       -1.7970571292        2.4064445555
 C          3.5525780450       -0.9223572959        1.5144325923
 C          0.9907843782        1.1666228396        0.1179453594
 C         -3.2938603476        3.3654448820       -0.3923205454
 C         -4.5723220675        3.3793540717        0.0564452239
 H         -4.2511004500        1.2243317957        2.7115210242
 H         -1.9277461606        1.1980012525        1.8855566870
 H          0.6186259431        2.4092875950       -2.3283887299
 H          1.7497906608        4.3642051899       -3.3130800108
 H          1.3387821144        6.6219379532       -2.4008845240
 H         -0.1937242281        6.9139615915       -0.4868703724
 H         -1.2897190722        4.9562103794        0.5308205919
 H         -2.1208238416        0.0846296200       -0.7365700215
 H         -2.9065333130       -0.9950669193        1.2289927813
 H         -5.0619708037       -1.9647386644        1.8950737677
 H         -5.7741165551       -4.1589408094        1.0707749799
 H         -4.3208774495       -5.4690391519       -0.4432957800
 H         -2.3084062935       -6.3645981092       -2.0657442543
 H         -0.2419401598       -6.6190546820       -3.4013347229
 H          1.4386775317       -4.8381005838       -3.4521709692
 H          1.1362371190       -2.7658024058       -2.1621161472
 H          1.4048219467       -2.1979583479        0.1088334132
 H          2.9762088176        1.7883108906       -1.5587026768
 H          5.0572169960        2.8618169513       -2.3075786814
 H          7.2076339231        2.3217444509       -1.2663063625
 H          7.3425113473        0.6536257286        0.5546942694
 H          6.8099088368       -1.2218935937        2.4779420871
 H          5.7403695266       -2.8241744503        4.0289913585
 H          3.3145947813       -3.1601307597        4.0005968668
 H          1.8790897013       -1.9392484174        2.4185470724
 H          1.5288336253        2.0785550730        0.3255636589
 H         -3.0080985004        3.9353779628       -1.2644804522
 H         -5.3251599745        3.9776833693       -0.4340117670
