  75
  -117.491000184100       0.564271189850526      !
 N         -7.3608337960        2.5987298093        2.0282020149
 C         -6.2657412947        2.5956861324        1.6423276505
 C         -4.9635324961        2.5855052633        1.1852366741
 C         -3.9666974814        1.7869251475        1.8347962630
 C         -2.6944120170        1.7598537588        1.3705355389
 C         -2.3094897922        2.5406882825        0.2354132871
 N         -1.0319503330        2.4471954808       -0.2678347274
 C         -0.3987914735        3.5542667049       -0.8262947912
 C          0.4665026738        3.3960507540       -1.9156956968
 C          1.0867576215        4.4941225401       -2.4709686721
 C          0.8520847272        5.7650530328       -1.9620888039
 C         -0.0132932649        5.9283998906       -0.8886292994
 C         -0.6364563050        4.8376593561       -0.3205986357
 C         -0.3723841442        1.2242801514       -0.2133041712
 C         -1.0876079314        0.0337115727       -0.4310479711
 C         -0.4505800325       -1.1875481991       -0.3147696662
 N         -1.1605950258       -2.3699491900       -0.5423662803
 C         -2.4079169809       -2.6773351870       -0.0270626576
 C         -3.2093896724       -1.9571683615        0.8472125219
 C         -4.4176947827       -2.5125317501        1.2240322178
 C         -4.8212260273       -3.7607103603        0.7567145230
 C         -4.0158902749       -4.4949048225       -0.0924500672
 C         -2.7994625792       -3.9553514382       -0.4868972248
 C         -1.7368670408       -4.4313498680       -1.3292361935
 C         -1.5567352368       -5.5900709056       -2.0709748229
 C         -0.4024120714       -5.7247497044       -2.8182001762
 C          0.5551300042       -4.7141103922       -2.8438573113
 C          0.3972316709       -3.5511348491       -2.1133949603
 C         -0.7461662741       -3.4223343569       -1.3376036953
 C          0.9089493790       -1.2462328697        0.0172754988
 C          1.6236103098       -0.0570211022        0.2253170139
 N          2.9823334910       -0.1147180333        0.5476522274
 C          3.9848905951        0.6340008746       -0.0414387094
 C          3.9140639951        1.5486739252       -1.0820914739
 C          5.0890715090        2.1429767613       -1.5023161600
 C          6.3121190436        1.8334832582       -0.9123328751
 C          6.3930640023        0.9058717534        0.1075539679
 C          5.2257353269        0.2962316105        0.5467627389
 C          4.9482885515       -0.6977509188        1.5458365714
 C          5.7435003537       -1.3865617779        2.4515035290
 C          5.1401067971       -2.2771042213        3.3176798829
 C          3.7610246021       -2.4714586120        3.2989099631
 C          2.9490367405       -1.7970571292        2.4064445555
 C          3.5525780450       -0.9223572959        1.5144325923
 C          0.9907843782        1.1666228396        0.1179453594
 C         -3.2938603476        3.3654448820       -0.3923205454
 C         -4.5723220675        3.3793540717        0.0564452239
 H         -4.2511004500        1.2243317957        2.7115210242
 H         -1.9277461606        1.1980012525        1.8855566870
 H          0.6186259431        2.4092875950       -2.3283887299
 H          1.7497906608        4.3642051899       -3.3130800108
 H          1.3387821144        6.6219379532       -2.4008845240
 H         -0.1937242281        6.9139615915       -0.4868703724
 H         -1.2897190722        4.9562103794        0.5308205919
 H         -2.1208238416        0.0846296200       -0.7365700215
 H         -2.9065333130       -0.9950669193        1.2289927813
 H         -5.0619708037       -1.9647386644        1.8950737677
 H         -5.7741165551       -4.1589408094        1.0707749799
 H         -4.3208774495       -5.4690391519       -0.4432957800
 H         -2.3084062935       -6.3645981092       -2.0657442543
 H         -0.2419401598       -6.6190546820       -3.4013347229
 H          1.4386775317       -4.8381005838       -3.4521709692
 H          1.1362371190       -2.7658024058       -2.1621161472
 H          1.4048219467       -2.1979583479        0.1088334132
 H          2.9762088176        1.7883108906       -1.5587026768
 H          5.0572169960        2.8618169513       -2.3075786814
 H          7.2076339231        2.3217444509       -1.2663063625
 H          7.3425113473        0.6536257286        0.5546942694
 H          6.8099088368       -1.2218935937        2.4779420871
 H          5.7403695266       -2.8241744503        4.0289913585
 H          3.3145947813       -3.1601307597        4.0005968668
 H          1.8790897013       -1.9392484174        2.4185470724
 H          1.5288336253        2.0785550730        0.3255636589
 H         -3.0080985004        3.9353779628       -1.2644804522
 H         -5.3251599745        3.9776833693       -0.4340117670
  75
  -117.490163035700       0.232681100931316      !
 N         -7.2396441424        2.9580146363        1.8162986729
 C         -6.1564964915        2.8823436741        1.4047137233
 C         -4.8694744695        2.7899955511        0.9167525908
 C         -3.8567422466        2.0820162740        1.6441404419
 C         -2.6012761538        1.9713912838        1.1481207293
 C         -2.2465780916        2.5782803525       -0.0980147688
 N         -0.9785821504        2.4164885383       -0.6107350360
 C         -0.3583446206        3.4430858448       -1.3149511681
 C          0.5124391952        3.1542903894       -2.3730092732
 C          1.1018167699        4.1790622985       -3.0813900101
 C          0.8348647026        5.5033222041       -2.7577076832
 C         -0.0275256688        5.7951165520       -1.7094185465
 C         -0.6209919521        4.7802264285       -0.9899302205
 C         -0.3319881868        1.1990786654       -0.4176063608
 C         -1.0684365611        0.0050205608       -0.4798504055
 C         -0.4527432599       -1.2060281499       -0.2238743022
 N         -1.1937948801       -2.3903132938       -0.2836245597
 C         -2.4325074373       -2.6015661918        0.2976807389
 C         -3.2012326797       -1.7549815784        1.0836377249
 C         -4.4095982194       -2.2306238291        1.5570863346
 C         -4.8449737077       -3.5221205275        1.2713931066
 C         -4.0721480391       -4.3796345569        0.5123998591
 C         -2.8567796627       -3.9219046349        0.0229982021
 C         -1.8242867821       -4.5279891235       -0.7715619690
 C         -1.6810077811       -5.7786648740       -1.3552516037
 C         -0.5492023174       -6.0340224762       -2.1056957667
 C          0.4217769372       -5.0535520258       -2.2918552387
 C          0.2987899872       -3.8014291265       -1.7201299883
 C         -0.8188995796       -3.5480401179       -0.9390377665
 C          0.9076078702       -1.2486154415        0.1116141085
 C          1.6446434869       -0.0581940720        0.1605210065
 N          2.9954993130       -0.0938770046        0.5258439308
 C          3.5816369888        0.6799934791        1.5104399264
 C          3.0113373401        1.6233433256        2.3529213656
 C          3.8304569139        2.2433500923        3.2775675954
 C          5.1844928908        1.9317619426        3.3740707281
 C          5.7525703470        0.9747129010        2.5563500983
 C          4.9492028465        0.3381165643        1.6202000040
 C          5.1930313056       -0.6915077605        0.6486936127
 C          6.3242978792       -1.4047912483        0.2766596845
 C          6.2169358413       -2.3334526579       -0.7401066853
 C          5.0060515422       -2.5398903153       -1.3964448589
 C          3.8681758716       -1.8397508440       -1.0440152894
 C          3.9608102785       -0.9289663508       -0.0024282068
 C          1.0384687634        1.1544472092       -0.1110342147
 C         -3.2472876564        3.3109069828       -0.8105604464
 C         -4.5099912146        3.4048365938       -0.3290176747
 H         -4.1156486632        1.6563460327        2.6021453767
 H         -1.8235793378        1.4772971228        1.7140202899
 H          0.6978966666        2.1244994411       -2.6401773033
 H          1.7670180998        3.9476887136       -3.8995628712
 H          1.2959319714        6.3012525999       -3.3184727375
 H         -0.2301259737        6.8225647278       -1.4475689386
 H         -1.2715000252        5.0024904669       -0.1573094222
 H         -2.1067052677        0.0387028042       -0.7709661485
 H         -2.8735023984       -0.7567011353        1.3266450386
 H         -5.0284796573       -1.5848704523        2.1615312560
 H         -5.7967622681       -3.8555980516        1.6562043174
 H         -4.4013305120       -5.3859078300        0.3023786486
 H         -2.4440591050       -6.5314077000       -1.2284027123
 H         -0.4179052651       -7.0013438873       -2.5667535909
 H          1.2866815410       -5.2734317211       -2.8999022689
 H          1.0438963702       -3.0410859027       -1.8930639892
 H          1.3723879979       -2.1835143105        0.3785084319
 H          1.9592144625        1.8596218850        2.3019034544
 H          3.4098576492        2.9835456189        3.9418848336
 H          5.7921622538        2.4409090966        4.1069571794
 H          6.7980048462        0.7202238511        2.6423848044
 H          7.2671024731       -1.2316692056        0.7728148063
 H          7.0838431850       -2.9020896372       -1.0412544330
 H          4.9557295642       -3.2589966586       -2.2004752970
 H          2.9409185294       -1.9885766005       -1.5747848611
 H          1.6094805978        2.0692299479       -0.0744624818
 H         -2.9860238815        3.7426732479       -1.7658658799
 H         -5.2752442169        3.9320283477       -0.8783983636
  75
  -117.489930366700       0.181900478299492      !
 N         -7.5354169238        3.1344665287        0.9068019702
 C         -6.4054966093        3.0099284550        0.6708437614
 C         -5.0633009366        2.8618817147        0.3856736235
 C         -4.2306910102        2.0109519002        1.1832240309
 C         -2.9139966521        1.8661620168        0.8989055966
 C         -2.3174616502        2.5725933174       -0.1936880854
 N         -0.9879873883        2.4029679373       -0.5006131693
 C         -0.2499124183        3.4641866092       -1.0289750060
 C          0.6996136880        3.2313954088       -2.0304336525
 C          1.4210556620        4.2812399050       -2.5566073405
 C          1.2054401304        5.5766650853       -2.1047248743
 C          0.2556124044        5.8140819760       -1.1201214083
 C         -0.4698510056        4.7717678650       -0.5828775458
 C         -0.3652933765        1.1805462427       -0.2845047444
 C         -1.0815465271       -0.0203073105       -0.4470702818
 C         -0.4655128885       -1.2318120112       -0.1938957714
 N         -1.1668881229       -2.4244933979       -0.4071087775
 C         -1.2755654427       -3.4738109816        0.4840571344
 C         -0.8004425174       -3.5834480145        1.7824172408
 C         -1.0737548500       -4.7469689999        2.4759130643
 C         -1.8129354367       -5.7775267672        1.9004824470
 C         -2.3133381686       -5.6631610458        0.6177544504
 C         -2.0497456949       -4.5037758194       -0.0980577793
 C         -2.4194761989       -4.0450990473       -1.4086711083
 C         -3.1518322604       -4.6075585014       -2.4447730454
 C         -3.3051797454       -3.8873528929       -3.6135852042
 C         -2.7260588323       -2.6293884087       -3.7610732826
 C         -1.9931819158       -2.0488590310       -2.7431849650
 C         -1.8569045709       -2.7564668785       -1.5575627292
 C          0.8656195429       -1.2777406275        0.2351315148
 C          1.5752546356       -0.0795803978        0.4095235148
 N          2.9133866740       -0.1156163888        0.8136522123
 C          3.4244803021       -0.8402862683        1.8738205908
 C          2.7675154082       -1.6323562333        2.8033999664
 C          3.5225632474       -2.2337034077        3.7923628501
 C          4.9003308561       -2.0451442456        3.8692170329
 C          5.5574957229       -1.2351246950        2.9638701551
 C          4.8189856208       -0.6228215033        1.9606131998
 C          5.1591570174        0.2773946594        0.8945242738
 C          6.3550497348        0.8361256714        0.4646799498
 C          6.3386872678        1.6679740489       -0.6376317701
 C          5.1517441097        1.9316703901       -1.3167730785
 C          3.9494523349        1.3867442710       -0.9070999916
 C          3.9544948970        0.5697305314        0.2139738742
 C          0.9662415821        1.1352719313        0.1595838870
 C         -3.1444731509        3.4325782763       -0.9830371967
 C         -4.4650930907        3.5647985364       -0.7128487444
 H         -4.6742277992        1.5045714841        2.0272711973
 H         -2.2783686658        1.2593554128        1.5272162134
 H          0.8392976212        2.2257811375       -2.3999827931
 H          2.1499943679        4.0939997794       -3.3306736941
 H          1.7721587533        6.3955984939       -2.5192235462
 H          0.0875828361        6.8191784950       -0.7643216709
 H         -1.1934565883        4.9471228793        0.1991483199
 H         -2.1041332030        0.0091473725       -0.7888845862
 H         -0.2479547849       -2.7802656492        2.2447398907
 H         -0.7109969060       -4.8567987354        3.4870318120
 H         -2.0048783936       -6.6723683652        2.4731429495
 H         -2.9021660581       -6.4543914204        0.1793304792
 H         -3.5871626180       -5.5892271791       -2.3364540256
 H         -3.8741423345       -4.3050595241       -4.4304787355
 H         -2.8499625340       -2.0962990273       -4.6919212363
 H         -1.5341008241       -1.0807812788       -2.8752404959
 H          1.3574556053       -2.2259797465        0.3768380786
 H          1.6976971860       -1.7651436935        2.7688932517
 H          3.0324348463       -2.8585021700        4.5239543126
 H          5.4565508169       -2.5322994714        4.6558755753
 H          6.6224933718       -1.0743445005        3.0337338327
 H          7.2767013815        0.6184175730        0.9825168002
 H          7.2573842597        2.1148314912       -0.9867916335
 H          5.1707235918        2.5732935899       -2.1851877705
 H          3.0410444331        1.5875741176       -1.4528339001
 H          1.5025399065        2.0551731932        0.3342536192
 H         -2.7029112135        3.9341788108       -1.8320659874
 H         -5.0963076801        4.1911109566       -1.3248464144
  75
  -117.487896761300       2.114723091866565E-002 !
 N         -1.1585162181        6.7575474328        4.4914177675
 C         -1.2257557430        5.9549461579        3.6540204775
 C         -1.3056225922        5.0049564081        2.6572538526
 C         -1.1960608637        3.6075051465        2.9604809976
 C         -1.2687872818        2.6774382461        1.9788907968
 C         -1.4733425215        3.0641729415        0.6148457256
 N         -1.5268128695        2.1254967324       -0.3899500984
 C         -2.3834045778        2.3366740963       -1.4741795744
 C         -3.6396526204        2.9176634129       -1.2669004046
 C         -4.4788394254        3.1482897513       -2.3360633828
 C         -4.0842691342        2.8109357335       -3.6239516227
 C         -2.8368853400        2.2379566669       -3.8347381722
 C         -1.9885226144        2.0012019242       -2.7739459336
 C         -0.7502243164        0.9775068240       -0.3286709577
 C         -1.2124165074       -0.2266417431       -0.8859513505
 C         -0.4554268453       -1.3772204877       -0.7803749983
 N         -0.9134356635       -2.5744403759       -1.3402734108
 C         -2.1721953884       -3.1188528924       -1.1717122904
 C         -3.2329458117       -2.6726342381       -0.3967579049
 C         -4.3871105109       -3.4328440072       -0.3829084762
 C         -4.4885794763       -4.6138913982       -1.1143149914
 C         -3.4274328417       -5.0760754392       -1.8678638041
 C         -2.2570837242       -4.3301559578       -1.8961369413
 C         -0.9839633035       -4.5145731280       -2.5353054082
 C         -0.4734012763       -5.4896716044       -3.3810343496
 C          0.8179925733       -5.3484940872       -3.8500189900
 C          1.5917174130       -4.2453206118       -3.4973939719
 C          1.1049350974       -3.2612283789       -2.6578082073
 C         -0.1830168632       -3.4103398165       -2.1636389397
 C          0.7744786551       -1.3584552279       -0.1072054392
 C          1.2343450475       -0.1618516868        0.4515670679
 N          2.4597142159       -0.1471015223        1.1270990564
 C          2.8379491624       -1.0332076886        2.1180996612
 C          2.1236480136       -2.0744197976        2.6934344657
 C          2.7351760218       -2.7969340992        3.7006365134
 C          4.0215648724       -2.4902764143        4.1373138979
 C          4.7274497373       -1.4384313060        3.5859632094
 C          4.1342748387       -0.6987857143        2.5724339799
 C          4.5520769976        0.4455128374        1.8100953436
 C          5.7124708655        1.2064860882        1.7911177885
 C          5.8003109218        2.2564550595        0.8976556645
 C          4.7559990595        2.5404770114        0.0211173039
 C          3.5908203007        1.7968756772        0.0216989278
 C          3.4867957331        0.7564628905        0.9337027186
 C          0.4886359967        0.9968176735        0.3409310404
 C         -1.6033809150        4.4576567133        0.3133443519
 C         -1.5124561566        5.3909943786        1.2896492759
 H         -1.0738853972        3.3155446098        3.9926449586
 H         -1.2307797228        1.6238235107        2.2149474141
 H         -3.9478098254        3.1603310673       -0.2607114238
 H         -5.4503106955        3.5867808593       -2.1662073319
 H         -4.7435127099        2.9942411724       -4.4579086028
 H         -2.5228650191        1.9828409876       -4.8356565240
 H         -1.0089716086        1.5773388899       -2.9379826733
 H         -2.1627411561       -0.2523960596       -1.3961041328
 H         -3.1596458509       -1.7688485573        0.1891590656
 H         -5.2272064878       -3.1051654494        0.2111956056
 H         -5.4084243524       -5.1781098162       -1.0799449957
 H         -3.4996185234       -6.0004835210       -2.4203902279
 H         -1.0786563332       -6.3363352985       -3.6670450674
 H          1.2353572968       -6.0972848661       -4.5062407502
 H          2.5932238453       -4.1545684222       -3.8908887314
 H          1.7072457592       -2.4010131042       -2.4072172745
 H          1.3592310103       -2.2591704256       -0.0211057657
 H          1.1182138268       -2.3086844334        2.3777447211
 H          2.2007932590       -3.6139412893        4.1620740978
 H          4.4651581210       -3.0789375712        4.9261179298
 H          5.7171321467       -1.1894160864        3.9372432133
 H          6.5280998489        0.9763892430        2.4595072346
 H          6.6928177060        2.8631174270        0.8691048971
 H          4.8589010884        3.3588604106       -0.6757369191
 H          2.7948566385        2.0160243721       -0.6739344526
 H          0.8565405742        1.9202012118        0.7592781063
 H         -1.7216978427        4.7505969702       -0.7198702275
 H         -1.5778675476        6.4434231091        1.0589845983
