53
 energy: -79.327852217919 gnorm: 0.000032334142 xtb: 6.7.1 (edcfbbe)
C            1.88408671362366        4.11008021634970       -0.43195116575866
C            1.69473897874777        3.68365571560904        0.87601775063448
C            1.55915978019281        2.34059230865072        1.15393342831532
C            1.63559802546693        1.39742493356326        0.12235195152708
P            1.29731913035844       -0.34368917807159        0.49096546500377
C            2.93962059344444       -1.08860482470762        0.80949451152279
C            3.05558201564084       -2.47699993784635        0.74643161242990
C            4.25844451011496       -3.08374092639808        1.04767585025636
C            5.34160549101277       -2.31488523030362        1.45200323857640
C            5.21707233216009       -0.93731982145394        1.55230929586922
C            4.01716878590101       -0.32182919289775        1.24908220680110
C            0.71351948659288       -1.15110614959703       -0.99278765914421
C            1.25895711445080       -1.64463827591152       -2.14428984552300
S            0.00508666983432       -2.12394668257879       -3.27186276882153
C           -1.25181511571272       -1.64781411145786       -2.14636936785646
C           -0.70950063934667       -1.15289934334348       -0.99399542683066
P           -1.29803939556092       -0.34750402767284        0.48889623583689
C           -1.64086648233124        1.39270228477510        0.12018357019603
C           -1.81056712937208        1.82927015113179       -1.19725608555855
C           -1.94323175944622        3.17539162904932       -1.46298206269509
C           -1.89602987187617        4.10528388757454       -0.43151805292182
C           -1.71391317392330        3.67752851244351        0.87701937056276
C           -1.57501292155069        2.33453274634471        1.15373166413669
C           -2.93846388555631       -1.09763737441203        0.80497764778647
C           -4.01958356954186       -0.33473766016761        1.24254057065438
C           -5.21764473232673       -0.95467479691894        1.54406454787523
C           -5.33693448838025       -2.33270957269961        1.44390519575188
C           -4.25027285633908       -3.09763893524616        1.04150171803638
C           -3.04920311522055       -2.48647954770043        0.74209721313360
C            1.81263500231685        1.83255864106364       -1.19463334570712
C            1.94180211253212        3.17877783286401       -1.46159839592395
H            1.98264269563247        5.16294926650570       -0.64977627476924
H            1.65009087486760        4.40671501635112        1.67776942533275
H            1.40971132870338        1.99909728434161        2.16961393227028
H            2.20128739641048       -3.06551476699212        0.43787795792807
H            4.35391931058498       -4.15748986963896        0.97450967969133
H            6.27935847888358       -2.79138059857713        1.69682518008038
H            6.05921651576060       -0.34017921580306        1.87126761593542
H            3.91642405795211        0.75231421505021        1.31893121383143
H            2.28587247141532       -1.78704622724143       -2.41510224997421
H           -2.27795046554033       -1.79278217709955       -2.41878071725156
H           -1.84346825024838        1.10393384719959       -1.99897717355460
H           -2.08382845969341        3.50751428403386       -2.48194276199720
H           -1.99714702077569        5.15810746481650       -0.64837818793899
H           -1.67741164123744        4.39948849092072        1.68017983885352
H           -1.43091864777483        1.99202867951665        2.16986387039983
H           -3.92312286330727        0.73980701466394        1.31219444340022
H           -6.06251102196373       -0.36060648004284        1.86155941950834
H           -6.27330237199243       -2.81261091895324        1.68738739640913
H           -4.34162440964898       -4.17174026785101        0.96827578993130
H           -2.19222203072566       -3.07189054534795        0.43506639567096
H            1.85397760289826        1.10603709071167       -1.99489454238027
H            2.08819792025098        3.50984650820245       -2.48009240124101
