53
 energy: -79.426701466151 gnorm: 0.000033675425 xtb: 6.7.1 (edcfbbe)
C            1.95610341148133        3.85010708752821       -0.20891396988780
C            2.23751927748425        3.35647627743252        1.05492409578476
C            2.07828345896573        2.00946341763233        1.31829134182346
C            1.65168727622244        1.13888516328368        0.31791169553878
P            1.46666500590957       -0.61914406153114        0.80317437292875
C            3.17970524488604       -1.22248608641935        0.51703816501933
C            3.36675416965333       -2.60037653702541        0.61523203792717
C            4.62058090932616       -3.15337798166084        0.44086212373357
C            5.70819110289722       -2.33269111424294        0.18385814980507
C            5.53298716438736       -0.96149136988301        0.10693895104779
C            4.27643675079447       -0.40456841293015        0.27662173783680
C            0.68806284030984       -1.31784643751540       -0.68061777336109
C            1.22287167255663       -1.77961748824265       -1.84031467994371
S            0.01082905542296       -2.38941542696414       -2.90628395415095
C           -1.23505781374056       -2.01134730746409       -1.77030878717418
C           -0.73361510658713       -1.45497387219157       -0.63857278824720
P           -1.51665501211988       -0.89204589524746        0.90299859889791
C           -1.63862571072020        0.89130993409568        0.48472377987777
C           -2.01576935609745        1.33395857605776       -0.77876113814607
C           -2.08264734381470        2.68834704510050       -1.04518157380781
C           -1.77387948379529        3.60939086444023       -0.05620261744859
C           -1.39973540386706        3.17390738314879        1.20327718928425
C           -1.33014563002632        1.81851138421500        1.47253881812928
C           -3.24333402446426       -1.42963793227210        0.58946307292191
C           -4.33006084953025       -0.56375743868249        0.63156731823370
C           -5.61513047404429       -1.05128678649585        0.46628388248782
C           -5.83005165969251       -2.40557204075115        0.27372703402638
C           -4.75379388005949       -3.27937323193019        0.26236270388142
C           -3.47057368190884       -2.79578360897958        0.43168490327368
C            1.36659129718305        1.64103835925278       -0.94481338567162
C            1.51904791656865        2.99176611660684       -1.20347532484111
H            2.07350919842336        4.90356424136999       -0.41724773474187
H            2.57521958990987        4.02312129976365        1.83554474369552
H            2.28754401148922        1.61599418579764        2.30489740532558
H            2.51430832696792       -3.23508138484852        0.82287711125033
H            4.75301214604804       -4.22372362836242        0.50956228714479
H            6.69022087060183       -2.76198862735012        0.04856529853218
H            6.37934721877214       -0.31813894262735       -0.08795861039960
H            4.15033236832145        0.66678780903162        0.21422823166069
H            2.25252309753131       -1.81554013470985       -2.13976368534812
H           -2.25301804180384       -2.24408906370086       -2.01645302939168
H           -2.25927483237631        0.61447486287976       -1.54929557871001
H           -2.37613365944415        3.02828570382148       -2.02832485065701
H           -1.82441299423284        4.66711927673901       -0.26999356403662
H           -1.15876110209182        3.88999751898412        1.97543636080407
H           -1.03401508918018        1.46798158929390        2.45196901728703
H           -4.17103415556033        0.49427430689497        0.78679442556629
H           -6.45265692491906       -0.36852558243326        0.48996124396927
H           -6.83408207213510       -2.78184065284487        0.14187632412235
H           -4.91732203950626       -4.33918461656732        0.12722230463028
H           -2.62823114397837       -3.47590969195603        0.43662962436518
H            1.02394136575205        0.97927703962649       -1.72753982766780
H            1.29574073785397        3.37477591287194       -2.18901947719138
