53
 energy: -79.426752342946 gnorm: 0.000087530080 xtb: 6.7.1 (edcfbbe)
C            1.40648792293667        3.95639995281994       -0.55152501035429
C            1.05090929167461        3.65796270335983        0.75248316769198
C            1.11185401851292        2.35095984502396        1.20257828345291
C            1.53274716390744        1.33651829395119        0.35155090866814
P            1.57004726917044       -0.37910336541798        1.00164203666921
C            3.33324353206208       -0.81351510338808        0.73731170730771
C            3.66958555839677       -2.16548997242997        0.78450050416569
C            4.98748310827405       -2.56581850756728        0.67417328279983
C            5.98974962095397       -1.61746437264788        0.53866517679834
C            5.66641359288286       -0.27111263360357        0.52483261240426
C            4.34635722660263        0.13233604561553        0.63131723823277
C            0.82752470324517       -1.19698076886364       -0.44280239977800
C            1.35788884777170       -1.89094175423366       -1.48120497389196
S            0.13360170221096       -2.49135653475195       -2.54316930665898
C           -1.10880684718514       -1.78833694709826       -1.57392618289916
C           -0.59890226772924       -1.13469764884177       -0.49841141967468
P           -1.41173633410517       -0.26087009380933        0.86972258584710
C           -1.78172233680585        1.36189958534989        0.10378852141553
C           -1.51613588833440        1.68850571759233       -1.21915961298096
C           -1.80601449483227        2.95687293453948       -1.69071978973950
C           -2.35906460770092        3.90717227434567       -0.84946495504910
C           -2.61943545694336        3.59020831927605        0.47437411391647
C           -2.32429704217175        2.32707074787798        0.94973890910415
C           -3.05809592064610       -1.07131060863230        0.75863738033350
C           -4.23619509001714       -0.43460810794766        0.38979260198381
C           -5.42812157765978       -1.13953766049935        0.37150634420624
C           -5.45706288583282       -2.47755359640907        0.72615768813227
C           -4.28684588880511       -3.11521366050590        1.10887578710510
C           -3.09727319379534       -2.41352984198501        1.13292340626928
C            1.89056248053443        1.64171062065519       -0.95751028462143
C            1.82759436879653        2.94782740540833       -1.40438637908746
H            1.35538708085674        4.97553535319632       -0.90621913237987
H            0.72236159080027        4.44308620706827        1.41777086508365
H            0.83176292451669        2.10526672451063        2.21816428402270
H            2.88428175064298       -2.90125870956505        0.90449576872437
H            5.23598320874285       -3.61741909835814        0.69943293839017
H            7.02093831381371       -1.92817515388353        0.45348485221203
H            6.44649577388969        0.47140625173645        0.43309774185923
H            4.10260396419727        1.18563415188994        0.62734827101598
H            2.38617433226955       -2.10921210306490       -1.69545837396160
H           -2.13490961178483       -1.91707093077778       -1.85985025724086
H           -1.08182427838158        0.95425403786662       -1.88263854738337
H           -1.59848058820450        3.20301238044513       -2.72233454196363
H           -2.58331923519632        4.89546398051072       -1.22366264216027
H           -3.04688114870845        4.33040652166983        1.13557932430569
H           -2.51577161581363        2.07205459507498        1.98448719406632
H           -4.22404031615759        0.60898923252925        0.10984744932184
H           -6.33938518031317       -0.63868621362392        0.07662922813431
H           -6.38961195368729       -3.02257207227733        0.70885335364887
H           -4.30513283812906       -4.15766102122632        1.39317414698231
H           -2.18011711101562       -2.90229121767327        1.43751044546480
H            2.22167587577525        0.85331564147656       -1.62052900067576
H            2.10623453525734        3.18121735404202       -2.42235894873747
