  53
        -79.39508675
 C          1.3512198464        3.9370740256       -0.5801581165
 C          1.0346638978        3.6610783928        0.7384008205
 C          1.1118464349        2.3625263729        1.2090003133
 C          1.5093260775        1.3342344739        0.3641378954
 P          1.5654296760       -0.3695115074        1.0429611017
 C          3.3304728422       -0.7801579849        0.7602451585
 C          3.6880546186       -2.1262235151        0.8037174670
 C          5.0086923668       -2.5060940199        0.6633809231
 C          5.9922811134       -1.5431040123        0.5006966260
 C          5.6480102580       -0.2022957397        0.4907936059
 C          4.3251546732        0.1810726955        0.6276017697
 C          0.8296001281       -1.2195820616       -0.3854744981
 C          1.3730246770       -1.9032071336       -1.4236997509
 S          0.1601100820       -2.5414607225       -2.4760399606
 C         -1.0955314422       -1.8679645172       -1.5028692309
 C         -0.5976050890       -1.1964967249       -0.4331737725
 P         -1.4281067953       -0.3293854937        0.9276275427
 C         -1.7381511376        1.3080561669        0.1646440840
 C         -1.5141623463        1.6076370320       -1.1720989509
 C         -1.7574899853        2.8848458621       -1.6447082472
 C         -2.2264486314        3.8692411481       -0.7920580900
 C         -2.4508610238        3.5768886586        0.5434148500
 C         -2.2007816318        2.3046865931        1.0201081753
 C         -3.0914421966       -1.0868435129        0.7429104545
 C         -4.2405476167       -0.3912142389        0.3904143248
 C         -5.4542030027       -1.0530482251        0.3130751663
 C         -5.5338296813       -2.4062605096        0.5927966210
 C         -4.3929562806       -3.1027538464        0.9603675346
 C         -3.1815939627       -2.4447012456        1.0429557773
 C          1.8307694068        1.6170183365       -0.9588823102
 C          1.7515272192        2.9147737602       -1.4261798583
 H          1.2854454249        4.9491221285       -0.9516437621
 H          0.7224592752        4.4569869718        1.3985628007
 H          0.8606155242        2.1341165147        2.2356502258
 H          2.9174924017       -2.8730866094        0.9436196631
 H          5.2746494539       -3.5531763141        0.6853979944
 H          7.0253774139       -1.8382184356        0.3906359932
 H          6.4140496702        0.5514404241        0.3782879713
 H          4.0650140583        1.2300991075        0.6248987812
 H          2.4055644680       -2.0948220530       -1.6418556629
 H         -2.1192758683       -2.0256863157       -1.7817385408
 H         -1.1479676037        0.8460701119       -1.8453636346
 H         -1.5793014316        3.1118448880       -2.6859620908
 H         -2.4141334954        4.8646004994       -1.1669817313
 H         -2.8154133486        4.3431844724        1.2121487939
 H         -2.3637089983        2.0685024311        2.0636450187
 H         -4.1889291404        0.6649435697        0.1683490099
 H         -6.3428302356       -0.5067370049        0.0302559232
 H         -6.4831717697       -2.9173208930        0.5293568612
 H         -4.4514546301       -4.1575337641        1.1862395790
 H         -2.2875321794       -2.9798490291        1.3351989239
 H          2.1435668319        0.8184648919       -1.6180304425
 H          1.9997002088        3.1315171229       -2.4554422028
