  68
        -98.78418300
 C          4.5806193742        4.1487372642       -0.5168772079
 C          3.1409740291        4.6034384667       -0.2385780404
 C          3.0457260758        5.1927313341        1.1760486050
 C          2.7869936839        5.7063029815       -1.2397394411
 C          2.2108494796        3.4045258218       -0.3373322040
 C          1.1681010348        3.3279076267       -1.2502088290
 C          0.3441485579        2.2176573744       -1.2959333879
 C          0.5317242094        1.1694479375       -0.4086706952
 C          1.5957206353        1.2048713282        0.4962174660
 C          2.4117637991        2.3207600396        0.5145242389
 C          1.7778926089       -0.0057873160        1.3949039974
 C          0.6717045981       -0.0008521220        2.4690889233
 C          3.1302622903       -0.0120649028        2.1063160568
 C          1.5841944843       -1.2148324118        0.4963605271
 C          2.3902133233       -2.3380020692        0.5137458317
 C          2.1764304534       -3.4213793280       -0.3354661778
 C          3.0977897924       -4.6273148643       -0.2401076448
 C          3.0212663830       -5.2056719885        1.1801782843
 C          4.5358295061       -4.1844600571       -0.5451149779
 C          2.7197301800       -5.7356799427       -1.2261982044
 C          1.1319632792       -3.3364563354       -1.2456100355
 C          0.3193788966       -2.2179236797       -1.2920107208
 C          0.5193285043       -1.1700337523       -0.4070898999
 N         -0.2614680240        0.0038020813       -0.4610143343
 C         -1.6256706007        0.0110799340       -0.3242467851
 C         -2.3504362141       -1.1864470535       -0.2101329187
 C         -3.7184808895       -1.1779233266       -0.0679363453
 C         -4.4130244141        0.0264783752       -0.0225256998
 C         -5.8958528317        0.0200071382        0.1491805255
 F         -6.4844955864        1.1613609445       -0.2458886067
 F         -6.2701991130       -0.1547859266        1.4398746496
 F         -6.5003397439       -0.9706400624       -0.5340564811
 C         -3.7069761245        1.2229208396       -0.0724274296
 C         -2.3383997367        1.2158616854       -0.2149913530
 H          4.6507005700        3.7101541210       -1.5102289347
 H          4.9113845031        3.4080591155        0.2060942339
 H          5.2573182817        4.9989486737       -0.4661174679
 H          2.0212646376        5.4888195888        1.3914936349
 H          3.3575122511        4.4738268639        1.9286112015
 H          3.6831871152        6.0701129818        1.2597603372
 H          3.4770474331        6.5389050658       -1.1200657545
 H          1.7792627635        6.0791954802       -1.0712683084
 H          2.8693428151        5.3474565298       -2.2632342345
 H          0.9856141999        4.1244402116       -1.9517930440
 H         -0.4387173755        2.1581538888       -2.0373393994
 H          3.2306550243        2.3564902607        1.2114663654
 H          0.7690743682        0.8833844458        3.0957526631
 H         -0.3188245275        0.0027449044        2.0250743867
 H          0.7622224113       -0.8850876265        3.0967179473
 H          3.9489407334       -0.0148567357        1.3900303061
 H          3.2132035834       -0.8876473848        2.7454519363
 H          3.2205525393        0.8617212238        2.7469336850
 H          3.2110816761       -2.3800922156        1.2080008910
 H          3.3497371004       -4.4837473085        1.9226551155
 H          3.6547735715       -6.0862388443        1.2602355145
 H          1.9985672073       -5.4941770170        1.4141062818
 H          5.2075722592       -5.0389341246       -0.5017706255
 H          4.8834498732       -3.4425823889        0.1685823465
 H          4.5920162874       -3.7509785263       -1.5415204405
 H          2.7946250528       -5.3881716547       -2.2538665106
 H          3.4011252105       -6.5752816962       -1.1062567876
 H          1.7096006926       -6.0944427128       -1.0428072258
 H          0.9395968215       -4.1326779588       -1.9448291740
 H         -0.4641742904       -2.1517998237       -2.0321037514
 H         -1.8313269502       -2.1299952418       -0.2066133795
 H         -4.2571654614       -2.1098165099        0.0109456888
 H         -4.2342042271        2.1614891074        0.0030714950
 H         -1.8097202529        2.1541422651       -0.2154182984
