68
 energy: -98.814198730757 gnorm: 0.000108711842 xtb: 6.7.1 (edcfbbe)
C            6.25776594661219       -0.55626296433890       -0.00011979314870
C            5.04879927653084       -1.49684126147988       -0.00005795182471
C            5.12935876573330       -2.37708766856933       -1.25634249807476
C            5.12950194710310       -2.37711794104351        1.25619554303172
C            3.72645774631907       -0.74435775513073        0.00002772491990
C            3.63538931176743        0.64052359799506        0.00009949439227
C            2.40673678225680        1.27009974343047        0.00016362866261
C            1.21820911659909        0.54123214879334        0.00015074625375
C            1.28160634098984       -0.85467722796400        0.00009324874592
C            2.53081210729084       -1.45513531268714        0.00003824793137
C            0.03478850008197       -1.72172734526524        0.00008537645851
C            0.04599418844649       -2.60291291201267        1.26333461941217
C            0.04597970147972       -2.60286757906425       -1.26319627604044
C           -1.23335919031015       -0.88604959201226        0.00010455352448
C           -2.46708405469770       -1.52471893755092        0.00006067344732
C           -3.67682746121536       -0.84560853001647        0.00004992256841
C           -5.02609267457573       -1.54865619541623       -0.00002593905768
C           -4.90025409677802       -3.07531502431120        0.00002572275376
C           -5.80691533732122       -1.13443259078276       -1.25630954292029
C           -5.80711609823423       -1.13436483314197        1.25611019504724
C           -3.61945709137925        0.54458841501114        0.00008906853265
C           -2.41280467963614        1.20881160289604        0.00014438065346
C           -1.20466066510701        0.50905834467944        0.00015343958431
N           -0.00213655078303        1.20156129060401        0.00020889809071
C           -0.02137877954092        2.62037451715429        0.00011945368282
C           -0.03165527205034        3.31663752003485        1.20506242994041
C           -0.05370901744852        4.69871919686188        1.20836906372402
C           -0.06944521541546        5.38514380531381       -0.00008002786161
C           -0.06435639101164        6.88451776749671       -0.00018211330501
F           -0.67177572896253        7.41836127770971        1.07437571205849
F           -0.67105982531345        7.41819491096326       -1.07521867953005
F            1.18900184652268        7.39608915382495        0.00020316274463
C           -0.05358919320307        4.69854743996258       -1.20842876324793
C           -0.03153575066033        3.31646765674128       -1.20492229484548
H            6.26281653998623        0.07438841739392        0.88614612828042
H            6.26269317921441        0.07442715292886       -0.88635913873473
H            7.17453521623020       -1.14298083000746       -0.00019507371507
H            4.33166423289893       -3.11453718715782       -1.27613427389896
H            5.04822846679203       -1.76336775370981       -2.15153774120633
H            6.08061317251429       -2.90494853811653       -1.28454145922055
H            6.08074077368566       -2.90501462984604        1.28425046026465
H            4.33178086027056       -3.11453670108517        1.27608020942751
H            5.04851840916623       -1.76341517904495        2.15141575208714
H            4.51863708787052        1.25792661906970        0.00010833786163
H            2.37156837359846        2.34933188988292        0.00022136974784
H            2.57480422753115       -2.53269630638073       -0.00000194720590
H            0.93395210094620       -3.22817434578517        1.29314099378424
H            0.03832455438659       -1.97581513747023        2.15332459893621
H           -0.82553300272677       -3.25092021962086        1.29309387494279
H            0.03830902237486       -1.97573620322100       -2.15316264037979
H           -0.82555123082611       -3.25086839770925       -1.29297602670958
H            0.93393157247342       -3.22813551424514       -1.29303292130023
H           -2.47310015319839       -2.60103961481052        0.00003035632426
H           -4.37699796780765       -3.42517392071109       -0.88716624437878
H           -5.89346572156841       -3.52053423256853       -0.00001051900095
H           -4.37708527722043       -3.42511473491646        0.88729224046700
H           -6.77036100933032       -1.63975910801691       -1.28387211152763
H           -5.24968887270976       -1.40385936673948       -2.15165471896125
H           -5.98454236648853       -0.06259793538395       -1.27591199649172
H           -5.98479960595896       -0.06253814586899        1.27560522993543
H           -6.77054223169367       -1.63973391209061        1.28357010719509
H           -5.25000902389056       -1.40369848982327        2.15155780439530
H           -4.52535263888045        1.13178705691459        0.00007791611814
H           -2.40542238880764        2.28854013136738        0.00018198955813
H           -0.02269505084579        2.76994530864732        2.13539933202984
H           -0.06444286043213        5.24435773121742        2.13941260650295
H           -0.06423274939107        5.24404886472512       -2.13955290362258
H           -0.02248414227225        2.76964551349622       -2.13518201780365
