  90
       -140.31134937
 N         -2.0775228549       -8.0115367233        0.0693828101
 C         -1.1639717570       -7.3163993046        0.0400267085
 C          0.0015174304       -6.5230567110        0.0018110252
 C          1.1693627629       -7.3129868597       -0.0200941439
 N          2.0878734831       -8.0015064474       -0.0377328690
 C         -0.0000894600       -5.1546309284       -0.0059322429
 C         -1.1677212960       -4.2841145525        0.0183959182
 C         -2.5253339010       -4.5624154773        0.0453912393
 C         -3.4243259709       -3.5086804937        0.0535113393
 C         -3.0028075853       -2.1778208749        0.0362587440
 C         -3.9756860690       -1.0843278362        0.0373680651
 C         -5.1801280730       -1.1903471234       -0.6605806516
 C         -6.0894868872       -0.1562094143       -0.6746081468
 C         -5.8315157395        1.0258601976        0.0236659478
 N         -6.7467997689        2.0753065442        0.0119322138
 C         -8.1230304330        1.8119787881       -0.0182066793
 C         -8.6548476246        0.7476022317        0.7086708096
 C        -10.0124519477        0.4944625275        0.6773403363
 C        -10.8591095129        1.2983883107       -0.0681464952
 C        -10.3356724473        2.3595619412       -0.7884880154
 C         -8.9784557014        2.6161147151       -0.7700700350
 C         -6.2959067323        3.4018356545        0.0271395465
 C         -5.1587222315        3.7698140168       -0.6911815775
 C         -4.7177954715        5.0786328109       -0.6723552419
 C         -5.4040459616        6.0397481044        0.0515421543
 C         -6.5376772288        5.6801674418        0.7619085486
 C         -6.9819678658        4.3722738415        0.7560892713
 C         -4.6330925602        1.1338241561        0.7332359224
 C         -3.7233329482        0.1002033267        0.7320357139
 C         -1.6296850379       -1.8988651217        0.0136019861
 C         -0.7316650955       -2.9394854145        0.0046531732
 C          0.7255652109       -2.9374855957       -0.0264559508
 C          1.6208678627       -1.8943953239       -0.0374736607
 C          2.9945489793       -2.1701425556       -0.0570216256
 C          3.9664959752       -1.0757639953       -0.0535872147
 C          5.1650126333       -1.1821401379        0.6544577612
 C          6.0751878397       -0.1490797167        0.6745224804
 C          5.8248843591        1.0320069387       -0.0283476060
 N          6.7444464566        2.0777888957       -0.0122579351
 C          6.3025024434        3.4070200582       -0.0323124160
 C          5.1567559679        3.7823478800        0.6684210944
 C          4.7267910703        5.0948499930        0.6461872485
 C          5.4326564029        6.0527730720       -0.0630412733
 C          6.5745111842        5.6858658686       -0.7561712934
 C          7.0076124441        4.3741982324       -0.7475535210
 C          8.1187889379        1.8051814011        0.0321353367
 C          8.9721604749        2.6014869506        0.7944972664
 C         10.3269161345        2.3334775641        0.8283166768
 C         10.8497491802        1.2683816563        0.1133665909
 C         10.0051158824        0.4724491043       -0.6429278839
 C          8.6502245784        0.7373523360       -0.6899669144
 C          4.6320066827        1.1407428245       -0.7469433162
 C          3.7206043516        0.1082460432       -0.7511187672
 C          3.4194462431       -3.4999039345       -0.0730960961
 C          2.5233643146       -4.5559396262       -0.0626395631
 C          1.1651156211       -4.2809761214       -0.0351055903
 H         -2.8904970594       -5.5767949612        0.0615713059
 H         -4.4810909908       -3.7250613095        0.0950793334
 H         -5.3884551419       -2.0823367144       -1.2323495028
 H         -7.0060402124       -0.2494866140       -1.2382925573
 H         -7.9976008339        0.1269548589        1.3000663896
 H        -10.4128144039       -0.3311137170        1.2470078809
 H        -11.9197690552        1.0996256983       -0.0870588607
 H        -10.9878195809        2.9882785677       -1.3764951942
 H         -8.5705873842        3.4384527052       -1.3394771774
 H         -4.6293510921        3.0240604174       -1.2661275260
 H         -3.8371318172        5.3513783574       -1.2351113323
 H         -5.0585198109        7.0621543461        0.0608368800
 H         -7.0767423479        6.4222836625        1.3318783971
 H         -7.8614323093        4.0919758959        1.3170877302
 H         -4.4282121710        2.0344121430        1.2933114744
 H         -2.8170715300        0.1970711368        1.3114593307
 H         -1.2848783823       -0.8764438197       -0.0209501058
 H          1.2737266756       -0.8725953184       -0.0059242696
 H          5.3673815257       -2.0735919824        1.2291698567
 H          6.9868039105       -0.2426362638        1.2460563296
 H          4.6123538300        3.0397592785        1.2333428560
 H          3.8391289852        5.3729868232        1.1950753130
 H          5.0956165360        7.0780717767       -0.0748704427
 H          7.1286354938        6.4251616770       -1.3153664463
 H          7.8935717512        4.0886479379       -1.2955062347
 H          8.5648434032        3.4270102836        1.3597182920
 H         10.9775567128        2.9565770656        1.4239289759
 H         11.9083609698        1.0604626289        0.1446607891
 H         10.4049231531       -0.3562821773       -1.2083938817
 H          7.9946344892        0.1224683388       -1.2891602936
 H          4.4322591446        2.0410816349       -1.3092582713
 H          2.8173041680        0.2065758577       -1.3349070420
 H          4.4767674276       -3.7133805767       -0.1151532162
 H          2.8912365814       -5.5693513925       -0.0779021812
