66
 energy: -109.522817151761 gnorm: 0.000033698392 xtb: 6.7.1 (edcfbbe)
C           -6.98863628565072       -1.79122517846114       -2.27538980274764
C           -8.22622068870343       -1.17635560729302       -2.16454386968378
C           -8.39767386909227       -0.12946208406747       -1.27426751208422
C           -7.33787868581639        0.29351028124886       -0.48857469737935
C           -6.08313798378167       -0.33733002903370       -0.57808122548064
C           -5.92579687537066       -1.37666995380238       -1.49468877167202
N           -5.04235369196601        0.10098976130715        0.22363937180029
C           -5.25558559604047        1.16175747725802        1.08824656565495
C           -4.25812571355862        1.63668450548219        1.93927400149674
C           -4.50543162368341        2.70067137337484        2.78660820664735
C           -5.75136641121187        3.30799140242700        2.80926751574924
C           -6.76079485579300        2.83943917791874        1.98501022993593
C           -6.52210358304921        1.77318096283513        1.13306347005537
O           -7.56294920342550        1.34281816828948        0.35830553258699
C           -3.77508419805033       -0.53761775684970        0.16760789579711
C           -2.68382292276226        0.12016099377973       -0.40502035720680
C           -1.45371161583641       -0.49018506322421       -0.45536225766199
C           -1.26123380566527       -1.78072712000343        0.07653046957172
C           -2.38998844195481       -2.44511250696689        0.60296948105070
C           -3.61720537670578       -1.83621565377685        0.66045467975275
C           -0.00278233519255       -2.49999899959492        0.00638915001942
O           -0.00417405296307       -3.77415112201180        0.01059423983161
C            1.25691543701133       -1.78366294276560       -0.06800483953753
C            1.45083082273072       -0.48865940627953        0.45255134742859
C            2.68227980001201        0.11869456141800        0.39950469112047
C            3.77357675525383       -0.54647380389147       -0.16450230231246
C            3.61418934202272       -1.84919353849997       -0.64594507786253
C            2.38560939995331       -2.45502614926342       -0.58588008452620
N            5.04232318915316        0.08898560622223       -0.22332556860690
C            6.08006019305337       -0.34383366015589        0.58528982175859
C            5.91751735133061       -1.37279124046250        1.51265076060236
C            6.97733318760993       -1.78214954680857        2.30016204666515
C            8.21701740038499       -1.17221169564968        2.18552249464991
C            8.39364659551078       -0.13545787484575        1.28445007133744
C            7.33685962947128        0.28233425889004        0.49195264991239
O            7.56683218402276        1.32203750227107       -0.36540189808197
C            6.52854563268054        1.74814346215852       -1.14594539300881
C            6.77186951305794        2.80547984917419       -2.00765910111023
C            5.76524658635381        3.26916429832129       -2.83807383162379
C            4.51747096598387        2.66577870007128       -2.81180208258793
C            4.26556531425741        1.61064533254673       -1.95481354018539
C            5.26015305125920        1.14087733420934       -1.09757687240291
H           -6.84473156115100       -2.59933685035733       -2.97551108567112
H           -9.05446193676610       -1.50296033385642       -2.77283958017403
H           -9.34435396010789        0.37689480624029       -1.17347592523259
H           -4.96243391989560       -1.85207198188433       -1.58887142149756
H           -3.29161499356528        1.15891526431102        1.93066987939877
H           -3.71851107077858        3.05314305900843        3.43499290405942
H           -5.94251118038307        4.13842084036121        3.46996605060992
H           -7.74403517998922        3.28216067099928        1.98824161227254
H           -2.82172998398179        1.10645630997225       -0.82548190777560
H           -0.63493556899282        0.01039184195707       -0.94946505411769
H           -2.25062298957863       -3.45040942031586        0.97404721642401
H           -4.46586155420554       -2.34911693304080        1.09041297342984
H            0.63200774388943        0.01805673134576        0.94025101746239
H            2.82124382907080        1.10845952899305        0.81137261460481
H            4.46284723191820       -2.36775510478420       -1.06905973177550
H            2.24502298795545       -3.46341582077607       -0.94801544180765
H            4.95251577903943       -1.84430399397407        1.60958189272003
H            6.82940993454605       -2.58229452523718        3.00855591753599
H            9.04295599240898       -1.49484000360417        2.79905184304985
H            9.34209187763381        0.36691822430210        1.18037303401348
H            7.75642741081631        3.24523309117519       -2.01342069854930
H            5.95992966278386        4.09283511044740       -3.50616434519216
H            3.73268262244783        3.01443061941324       -3.46481652182054
H            3.29764287633446        1.13580934093787       -1.94334577972476
