66
 energy: -109.591226152512 gnorm: 0.000054516968 xtb: 6.7.1 (edcfbbe)
C           -7.22672104572863       -2.19070144973731       -1.66501754398535
C           -8.41758232161941       -1.50045304568351       -1.55884656394541
C           -8.43943123629359       -0.27346884245679       -0.91203729581960
C           -7.28248178753168        0.24577355130145       -0.36039097462644
C           -6.07552451544742       -0.46264350146021       -0.43146644594752
C           -6.06448690420039       -1.67423935367705       -1.11246739343069
N           -4.92034054323001        0.08944470613039        0.13194812188829
C           -5.00314814619648        1.34478249313246        0.74364414738667
C           -3.91684542396493        1.93777390873444        1.37616104944011
C           -4.03450199237850        3.18157863568424        1.97789816325002
C           -5.24232966571092        3.84983679477470        1.96997676054779
C           -6.34522888022808        3.25768790239143        1.37224685179795
C           -6.23270641001069        2.01641794426850        0.77285004886412
O           -7.37950486539429        1.48218241230263        0.23389078417035
C           -3.69790616100092       -0.60947436289483        0.09315585647396
C           -2.60180585241764       -0.06796386187344       -0.57742112124566
C           -1.39779081038199       -0.74147508368056       -0.60313174684685
C           -1.26677959195353       -1.97574527344800        0.03517169184966
C           -2.37633183740556       -2.52764408244926        0.67750765178836
C           -3.57607620352156       -1.84984632741654        0.71891647704660
C           -0.00333245192246       -2.74706584849847        0.00536047407776
O           -0.00507651315124       -3.97065905763652        0.00815681002328
C            1.26219235979632       -1.97935184391487       -0.02740971075716
C            1.39489344988619       -0.74033998690136        0.60134012982972
C            2.60061962002593       -0.07005340024272        0.57280780529520
C            3.69693075534879       -0.61984373219272       -0.09063454634919
C            3.57357102130780       -1.86506801958570       -0.70634021825049
C            2.37187003914754       -2.53926389690629       -0.66258540266641
N            4.92098628189440        0.07612997198030       -0.13236921462971
C            6.07310661334157       -0.47199122858136        0.44100585099018
C            6.05795403812419       -1.67770954673427        1.13225984946843
C            7.21720158036026       -2.19011304785606        1.69480590969691
C            8.40902515342231       -1.50158208962137        1.58831389539228
C            8.43490283601746       -0.28039873896428        0.93073461540946
C            7.28095601469628        0.23484656783905        0.36914673460229
O            7.38169463753674        1.46587091490088       -0.23565435598791
C            6.23799479149998        1.99581570553001       -0.78537100490921
C            6.35439432823916        3.23103132070202       -1.39642554023019
C            5.25471440746963        3.81825501825375       -2.00489463546190
C            4.04626021224272        3.15111300007003       -2.01167063127830
C            3.92474222174719        1.91331951491870       -1.39842171377489
C            5.00772148962694        1.32555582775125       -0.75541246102009
H           -7.18795148843429       -3.13690556024227       -2.18263878617288
H           -9.32576006238616       -1.89905853300241       -1.98266286513914
H           -9.34763681268448        0.30267015873143       -0.82860321323130
H           -5.13869553289182       -2.21700360056806       -1.21964033495513
H           -2.97155577751126        1.42004307309905        1.40698164794623
H           -3.17176373256928        3.61897747544715        2.45647931754758
H           -5.33962874464933        4.81952189595589        2.43218372370471
H           -7.30935741331004        3.74153120224827        1.36577792374822
H           -2.70620163933288        0.87993697643021       -1.08410247153769
H           -0.56479836117875       -0.32559770369299       -1.14912455213188
H           -2.27041962504872       -3.48888407281647        1.15861102185582
H           -4.42435323316502       -2.27110551084534        1.23740665973954
H            0.56180243907301       -0.31800715479647        1.14218517177203
H            2.70628006068507        0.88178846297540        1.07180272271712
H            4.42202982271609       -2.29276746248659       -1.21924644837498
H            2.26448259475728       -3.50397904967134       -1.13637084593901
H            5.13124665840213       -2.21884905318421        1.23975481397669
H            7.17532353972619       -3.13168698971856        2.22056078195407
H            9.31485745083393       -1.89698209577356        2.02007873219736
H            9.34392120364187        0.29434987526092        0.84660047450834
H            7.31889120917752        3.71415126755668       -1.39029318935263
H            5.35501739838564        4.78324241550348       -2.47619896937999
H            3.18608930997663        3.58464078307159       -2.49831398772864
H            2.97912575115535        1.39610712357465       -1.42831849423015
