  66
       -109.54643116
 C         -7.2692301938       -2.2429329361       -1.5372657451
 C         -8.4529948797       -1.5414850008       -1.4297894946
 C         -8.4537370038       -0.2925166128       -0.8275256576
 C         -7.2823597753        0.2383237756       -0.3194063941
 C         -6.0827860731       -0.4821823867       -0.3884623724
 C         -6.0925293790       -1.7158968761       -1.0271429288
 N         -4.9132091746        0.0822462023        0.1331494175
 C         -4.9774728065        1.3587441678        0.7016596443
 C         -3.8784468442        1.9631814621        1.2993286270
 C         -3.9778329812        3.2285288745        1.8576330502
 C         -5.1798295884        3.9064314688        1.8402008559
 C         -6.2956432930        3.3024754492        1.2807231025
 C         -6.2019485772        2.0397163905        0.7250405778
 O         -7.3576198020        1.4949481799        0.2265733332
 C         -3.6952823780       -0.6179880192        0.0853302200
 C         -2.6074781592       -0.0856743777       -0.6060978223
 C         -1.4049901665       -0.7604546521       -0.6403050142
 C         -1.2669604813       -1.9879515792        0.0077841461
 C         -2.3675447542       -2.5316101040        0.6703331968
 C         -3.5652490421       -1.8517639226        0.7221589796
 C         -0.0035045652       -2.7627429055       -0.0308305640
 O         -0.0036921587       -3.9813059535       -0.0296153019
 C          1.2595965247       -1.9881891910       -0.0668665592
 C          1.3869426699       -0.7454172608        0.5541950907
 C          2.5916083488       -0.0745674059        0.5306804930
 C          3.6940740561       -0.6263784675       -0.1215507605
 C          3.5736170546       -1.8735443668       -0.7342394901
 C          2.3728349204       -2.5484882726       -0.6939962400
 N          4.9164482581        0.0661262390       -0.1516961727
 C          6.0679463988       -0.4917530723        0.4161563978
 C          6.0577606220       -1.7194034509        1.0665401030
 C          7.2172174046       -2.2403280586        1.6204582035
 C          8.4034260397       -1.5387774879        1.5457815394
 C          8.4225717467       -0.2948227557        0.9338149742
 C          7.2681657727        0.2302102832        0.3825383364
 O          7.3604210124        1.4831767498       -0.1689820215
 C          6.2209293944        2.0245279489       -0.7064601947
 C          6.3302870018        3.2866264793       -1.2609406476
 C          5.2332528179        3.8857130294       -1.8610032927
 C          4.0353008420        3.2031682899       -1.9210068651
 C          3.9198635733        1.9392017339       -1.3628371152
 C          4.9981126761        1.3406551550       -0.7228746564
 H         -7.2464936928       -3.2060444322       -2.0232458380
 H         -9.3718356834       -1.9496980113       -1.8195388401
 H         -9.3554671520        0.2932147328       -0.7468573533
 H         -5.1721362568       -2.2671868842       -1.1377149350
 H         -2.9369346709        1.4382154800        1.3373943225
 H         -3.1053066724        3.6740535420        2.3102029772
 H         -5.2615876512        4.8927194531        2.2684733310
 H         -7.2556370013        3.7932834796        1.2705416458
 H         -2.7191361223        0.8560691706       -1.1229825950
 H         -0.5779527815       -0.3516476952       -1.2012910481
 H         -2.2555041897       -3.4880048057        1.1583723330
 H         -4.4064633424       -2.2641523370        1.2589820528
 H          0.5494864091       -0.3211219318        1.0874377511
 H          2.6942656381        0.8786643097        1.0280467786
 H          4.4251042920       -2.3005514780       -1.2426602903
 H          2.2683297096       -3.5154210922       -1.1625744726
 H          5.1349501258       -2.2710754160        1.1521833621
 H          7.1789884635       -3.1989736933        2.1142036433
 H          9.3089851619       -1.9421172182        1.9700368050
 H          9.3255955909        0.2915994448        0.8783184833
 H          7.2877269756        3.7804925997       -1.2176921439
 H          5.3266602997        4.8718546142       -2.2872154498
 H          3.1784537193        3.6444007488       -2.4062258550
 H          2.9826026037        1.4100550924       -1.4351347295
