  66
       -109.47406201
 C         -7.0299254664       -1.8879774719       -2.2361560559
 C         -8.2580477971       -1.2557095999       -2.1355340688
 C         -8.4034424743       -0.1648927330       -1.2941623606
 C         -7.3280321068        0.2830732807       -0.5463244417
 C         -6.0836324571       -0.3675351500       -0.6216655217
 C         -5.9509989757       -1.4488429779       -1.4912194538
 N         -5.0260768374        0.0936414247        0.1450694102
 C         -5.2161680464        1.1962251703        0.9614184425
 C         -4.2053159389        1.6916374899        1.7833799397
 C         -4.4272605214        2.7979082734        2.5826541851
 C         -5.6609234071        3.4272468595        2.5851347581
 C         -6.6850528795        2.9363493129        1.7920201288
 C         -6.4717598843        1.8286743911        0.9892430686
 O         -7.5277076971        1.3787381254        0.2469762808
 C         -3.7666717015       -0.5560716228        0.0975462642
 C         -2.6657027531        0.0943541761       -0.4650324100
 C         -1.4389080838       -0.5229063814       -0.5031007176
 C         -1.2616754671       -1.8124842741        0.0342228767
 C         -2.3996397805       -2.4746967791        0.5427765135
 C         -3.6220812333       -1.8573135760        0.5888532469
 C         -0.0036346235       -2.5373850549       -0.0091878762
 O         -0.0053279076       -3.8022189551        0.0010885671
 C          1.2554559408       -1.8155506838       -0.0602106844
 C          1.4290836539       -0.5133809475        0.4477068514
 C          2.6582815647        0.0987599260        0.4137948811
 C          3.7657463295       -0.5696445672       -0.1140929973
 C          3.6237379025       -1.8803253869       -0.5791203045
 C          2.3979879762       -2.4921005409       -0.5387013143
 N          5.0287415196        0.0747967249       -0.1508546744
 C          6.0639394998       -0.3599264422        0.6601246855
 C          5.9109095836       -1.4209331528        1.5510428887
 C          6.9677326214       -1.8318061746        2.3423639571
 C          8.1929399463       -1.1900737014        2.2685426540
 C          8.3581782080       -0.1198498117        1.4046795079
 C          7.3055939074        0.2982330404        0.6085713264
 O          7.5248730315        1.3723457333       -0.2089114486
 C          6.4939633882        1.7885528742       -1.0043042276
 C          6.7293240386        2.8683524558       -1.8381231120
 C          5.7313610351        3.3227276810       -2.6847403240
 C          4.5019394158        2.6854242132       -2.7032789147
 C          4.2575255143        1.6077109111       -1.8721463515
 C          5.2418110147        1.1487334353       -0.9985165067
 H         -6.9045813828       -2.7287403920       -2.9003717128
 H         -9.1001894613       -1.6017302376       -2.7133237178
 H         -9.3424493391        0.3573371798       -1.2047773343
 H         -4.9932906461       -1.9355500969       -1.5801632865
 H         -3.2481028642        1.1958100692        1.7922726742
 H         -3.6294067384        3.1651789193        3.2092238384
 H         -5.8325211675        4.2911497865        3.2071906151
 H         -7.6609411873        3.3945736299        1.7833472071
 H         -2.7956734857        1.0812329259       -0.8874865851
 H         -0.6138442595       -0.0278989773       -0.9907224188
 H         -2.2695915484       -3.4796037939        0.9129354229
 H         -4.4795116605       -2.3613437378        1.0114298656
 H          0.5981255890       -0.0045717594        0.9102480525
 H          2.7854433971        1.0953994543        0.8135122319
 H          4.4858573149       -2.3976798868       -0.9753023698
 H          2.2703611683       -3.5045431506       -0.8885079027
 H          4.9552456991       -1.9149523143        1.6191019474
 H          6.8274665215       -2.6574126247        3.0224713618
 H          9.0168501450       -1.5128727674        2.8848230517
 H          9.2951444002        0.4088928525        1.3342852025
 H          7.7013798021        3.3339858495       -1.8109980151
 H          5.9200465487        4.1652567840       -3.3306670246
 H          3.7242546177        3.0249245670       -3.3696727293
 H          3.3033681403        1.1062783458       -1.8949374095
