66
 energy: -109.522830477475 gnorm: 0.000048753658 xtb: 6.7.1 (edcfbbe)
C           -6.93270600921592       -1.79168162161553       -2.38622479534979
C           -8.17483646090978       -1.18199533476686       -2.30031136872138
C           -8.37003845906402       -0.13872252446606       -1.41063202925443
C           -7.32919266368831        0.28645864219440       -0.60117924931732
C           -6.07006130007917       -0.33855102168129       -0.66624506169562
C           -5.88874284208813       -1.37512440386107       -1.58148066958843
N           -5.04805406010899        0.10240666491758        0.15762609812611
C           -5.28290726366398        1.16112048618522        1.01884525993492
C           -4.30373086222169        1.64048620763312        1.88834128958524
C           -4.57266058223949        2.70167400995241        2.73259993364972
C           -5.82247105216035        3.30143387097714        2.73359494909533
C           -6.81379673459615        2.82893606148547        1.88981823913839
C           -6.55329065821195        1.76580078141000        1.04037657848791
O           -7.57669842919400        1.33159948855484        0.24468178369039
C           -3.77849132565513       -0.53399393510847        0.12901830371437
C           -2.67916132095993        0.11974963187417       -0.43240788163795
C           -1.44760468096417       -0.48942617690749       -0.45742226624061
C           -1.26202823474887       -1.77424089864885        0.09054065908591
C           -2.39814586723577       -2.43455045438924        0.60634284129117
C           -3.62703342005460       -1.82724895895379        0.63748887570683
C           -0.00275211978853       -2.49393805162401        0.04728386585319
O           -0.00445092862990       -3.76800093887631        0.06883057467101
C            1.25838316813271       -1.77950035457118       -0.02097039050500
C            1.44777108238286       -0.47741530500777        0.48327659726752
C            2.68067519649072        0.12764743639223        0.43578231606739
C            3.77745385426149       -0.54688447429709       -0.10583028478552
C            3.62220923693470       -1.85637009530263       -0.56994755982755
C            2.39222993389834       -2.45976602766888       -0.51552238277174
N            5.04799872604073        0.08574629692858       -0.15956899658836
C            6.07380827605016       -0.33363673475647        0.67094508261597
C            5.89479094205284       -1.34091172154308        1.61882085352648
C            6.94260165038116       -1.73691217673756        2.42891550432480
C            8.18625795656511       -1.13464313120823        2.31666401158106
C            8.37924048488927       -0.11954917946629        1.39449807485184
C            7.33458045394494        0.28468680885948        0.57921229209561
O            7.58014094076818        1.30313445112199       -0.29912655341399
C            6.55314354379741        1.71685894159923       -1.10106507081349
C            6.81217243307146        2.75262130607788       -1.98414616132030
C            5.81728118957800        3.20319905233385       -2.83567104059229
C            4.56544138688349        2.60832842007804       -2.80885376931511
C            4.29807061731552        1.57423243899631       -1.93114093081616
C            5.28090132547976        1.11761427357541       -1.05351261302595
H           -6.77054390376229       -2.59735140768157       -3.08517151434245
H           -8.98859529192177       -1.51010787231806       -2.92709741021039
H           -9.32103458914055        0.36289586463327       -1.32848899949913
H           -4.92161831134155       -1.84654883393880       -1.65513619863240
H           -3.33444023294418        1.16830185166623        1.89621591064556
H           -3.79972647545072        3.05799263894071        3.39552719212301
H           -6.03058079919385        4.12937214491970        3.39229306623792
H           -7.79936878947172        3.26621663959435        1.87563256465901
H           -2.81168844057138        1.10179766217201       -0.86438487839137
H           -0.62192734545273        0.00735270791760       -0.94380226473742
H           -2.26317401702046       -3.43574785145646        0.98991527994374
H           -4.48205941095589       -2.33727729060886        1.05818025078651
H            0.62414055015962        0.03702247483683        0.95451970578023
H            2.81631283570686        1.12306266683396        0.83493641973333
H            4.47521900710356       -2.38208688723290       -0.97510058026877
H            2.25435057348778       -3.47324720919834       -0.86423758510440
H            4.92653729710838       -1.80626431337337        1.71320752277200
H            6.78215382105534       -2.52035514935273        3.15307887208259
H            9.00294131009975       -1.44671345167833        2.94780890882205
H            9.33131412003802        0.37609660916150        1.29120943997716
H            7.79934644584837        3.18647036963806       -1.98929270999378
H            6.02404646336999        4.01063258664872       -3.51980315432819
H            3.78954754587393        2.94722336326717       -3.47744828006284
H            3.32714361924620        1.10557090492941       -1.91907343141823
