  62
  -97.1803555690000       0.311878255116868      !
 C         -8.1432931398        2.9029048401       -0.0243044981
 C         -8.3799652952        1.7462740750        0.7010324081
 C         -7.4506553021        0.7247696185        0.7122164424
 C         -6.2651238009        0.8458762534       -0.0136996192
 N         -5.3212667187       -0.1857218683       -0.0072405777
 C         -5.7423458895       -1.5190050489        0.0052751240
 C         -5.0366691205       -2.4769030777        0.7344670723
 C         -5.4545053733       -3.7931374250        0.7399083298
 C         -6.5803564664       -4.1754446983        0.0283609273
 C         -7.2866458034       -3.2276337597       -0.6946939110
 C         -6.8735149497       -1.9099643454       -0.7121952872
 C         -3.9571722924        0.1157030567       -0.0059213926
 C         -3.0509255969       -0.6811917035       -0.7084585725
 C         -1.7058264071       -0.3869033086       -0.6964835807
 C         -1.2107520144        0.7164883360        0.0042406126
 C          0.2171035688        1.0257671607        0.0118978597
 C          0.6661830997        2.3514484046        0.0322283984
 C          2.0085159722        2.6538767631        0.0296225071
 C          2.9826072746        1.6487749468        0.0176069502
 N          4.2822229052        1.9085324847        0.0200893183
 C          5.1743572062        0.9447250140        0.0091795314
 C          4.7188452925       -0.4404982476       -0.0048146714
 N          3.4469518056       -0.7094373926       -0.0085794917
 C          2.5290171677        0.2673829315        0.0000324519
 C          1.1674231503        0.0034100823       -0.0060343542
 C          5.8856728136       -1.2871013971       -0.0130694478
 C          6.1050842012       -2.6499651168       -0.0271482439
 C          7.4319782599       -3.1021243607       -0.0329024553
 C          8.5165813964       -2.2503313541       -0.0249035077
 C          8.3261900620       -0.8501951774       -0.0101602919
 C          9.3078348171        0.1683471792       -0.0004327651
 C          8.9292829852        1.4948497235        0.0135910394
 C          7.5923320577        1.9127116408        0.0189767233
 C          6.6046612443        0.9430302240        0.0094621820
 C          7.0003939386       -0.4188445486       -0.0046525756
 C         -2.1263971195        1.5123768319        0.6979009371
 C         -3.4718451035        1.2186314711        0.6994711125
 C         -6.0332355304        2.0113896084       -0.7450736262
 C         -6.9662852426        3.0295127195       -0.7444703904
 H         -8.8708171394        3.6999087105       -0.0281901743
 H         -9.2916650988        1.6416670996        1.2702630131
 H         -7.6312079001       -0.1711971433        1.2878576663
 H         -4.1659241498       -2.1780842824        1.2992840994
 H         -4.9014963624       -4.5238695461        1.3112373509
 H         -6.9049125291       -5.2045733121        0.0372062889
 H         -8.1617124055       -3.5178313776       -1.2570316616
 H         -7.4183241742       -1.1747296854       -1.2861136870
 H         -3.4157256870       -1.5271576726       -1.2724381851
 H         -1.0272486909       -1.0022290795       -1.2675756036
 H         -0.0529973950        3.1561269005        0.0190706726
 H          2.3463314891        3.6786250071        0.0319791242
 H          0.8608080609       -1.0308816749        0.0044579068
 H          5.2866964384       -3.3533571355       -0.0339184717
 H          7.6065617703       -4.1689801526       -0.0443877522
 H          9.5195734028       -2.6520099334       -0.0301952917
 H         10.3545268608       -0.0977383011       -0.0041258456
 H          9.6984884918        2.2546888507        0.0208999356
 H          7.3477475996        2.9637226146        0.0301989748
 H         -1.7720785126        2.3540620966        1.2737493210
 H         -4.1603511096        1.8344755710        1.2594643519
 H         -5.1214681640        2.1061874204       -1.3162515709
 H         -6.7764887328        3.9247943255       -1.3177157205
  62
  -97.1800741515000       0.231555215482592      !
 C         -6.8076461012        3.7792842760       -0.6949912102
 C         -5.6914023433        3.5913047200        0.1042075839
 C         -5.1995962430        2.3210355658        0.3319598120
 C         -5.8200927034        1.2138166946       -0.2475316907
 N         -5.3226660996       -0.0751607929       -0.0273078550
 C         -6.2109833318       -1.1461182886        0.1152132532
 C         -5.9065062167       -2.3974831084       -0.4216049369
 C         -6.7876751369       -3.4504609725       -0.2729089937
 C         -7.9843915340       -3.2747465352        0.4030349758
 C         -8.2937897332       -2.0328435771        0.9340413952
 C         -7.4165309145       -0.9751383894        0.7968491397
 C         -3.9449019669       -0.2937521002        0.0302698803
 C         -3.0711455454        0.4525827572       -0.7634211981
 C         -1.7127730850        0.2350708574       -0.7025270513
 C         -1.1728516983       -0.7440641969        0.1348775350
 C          0.2683085039       -0.9850931420        0.1742111019
 C          0.7745799102       -2.2832041144        0.3003503672
 C          2.1300742494       -2.5247023328        0.3029024194
 C          3.0559818346       -1.4817256805        0.1959040717
 N          4.3672455386       -1.6834165896        0.1889425642
 C          5.2133898864       -0.6851169034        0.0954941425
 C          4.6985688292        0.6762693602        0.0076080785
 N          3.4142953288        0.8871728270        0.0037893097
 C          2.5422063744       -0.1256582999        0.0861086044
 C          1.1691450942        0.0750365534        0.0699814373
 C          5.8258175020        1.5694652201       -0.0680789354
 C          5.9863660184        2.9382226117       -0.1565049202
 C          7.2919316158        3.4453340212       -0.2102996845
 C          8.4128143891        2.6423205364       -0.1820293248
 C          8.2834447450        1.2378393823       -0.0920970385
 C          9.3080695484        0.2634384883       -0.0529490564
 C          8.9883329640       -1.0753844752        0.0378302761
 C          7.6710520384       -1.5483100068        0.0980756843
 C          6.6431879767       -0.6227259878        0.0617205196
 C          6.9781932740        0.7514043910       -0.0352491898
 C         -2.0536743230       -1.4886916858        0.9227923901
 C         -3.4120926976       -1.2647467233        0.8810499320
 C         -6.9428946661        1.4087515164       -1.0525067017
 C         -7.4305691769        2.6826463157       -1.2686053920
 H         -7.1895978625        4.7733964832       -0.8692423425
 H         -5.2042567380        4.4398963241        0.5611432275
 H         -4.3355474195        2.1745808266        0.9631791792
 H         -4.9797832896       -2.5327856883       -0.9596233370
 H         -6.5414744653       -4.4131552099       -0.6957373777
 H         -8.6709512213       -4.0997241165        0.5152623866
 H         -9.2218252717       -1.8881913693        1.4669782929
 H         -7.6539082021       -0.0103739102        1.2207069076
 H         -3.4704289943        1.1963364707       -1.4372552339
 H         -1.0572251053        0.8073708888       -1.3414603337
 H          0.0907394454       -3.1160409599        0.3638744651
 H          2.5141606903       -3.5300548956        0.3803234584
 H          0.8133412785        1.0913150235        0.0022528547
 H          5.1383483431        3.6050947197       -0.1834069749
 H          7.4196356718        4.5165682574       -0.2788563464
 H          9.3969903297        3.0854404947       -0.2284080477
 H         10.3418725730        0.5730002755       -0.0960188993
 H          9.7896730067       -1.8005484931        0.0651960655
 H          7.4725061035       -2.6065255891        0.1703831608
 H         -1.6623635729       -2.2303186368        1.6030796251
 H         -4.0744508590       -1.8340768206        1.5166111101
 H         -7.4220587947        0.5557943755       -1.5105035566
 H         -8.2980087117        2.8202123300       -1.8968742480
  62
  -97.1796897345000       0.154166050345918      !
 C         -7.2813129194        2.5189947671        2.5863805172
 C         -7.6419529323        1.1811425917        2.5814565020
 C         -6.9957045475        0.2852199333        1.7527728117
 C         -5.9759311630        0.7212459153        0.9058083761
 N         -5.3220580468       -0.1809378244        0.0617583080
 C         -6.0373218920       -1.2225751011       -0.5375818947
 C         -5.4515396451       -2.4782267583       -0.7024007791
 C         -6.1598681591       -3.5026173683       -1.2991006696
 C         -7.4591677362       -3.2971467197       -1.7344472091
 C         -8.0465137191       -2.0529225654       -1.5706185562
 C         -7.3448405729       -1.0200529809       -0.9806057099
 C         -3.9536374132       -0.0430815340       -0.1865687157
 C         -3.4288463441       -0.3238134906       -1.4494712175
 C         -2.0795451321       -0.1893562743       -1.6910699758
 C         -1.2015819387        0.2265923512       -0.6871076534
 C          0.2303621297        0.3647666842       -0.9471750938
 C          0.6937747470        0.8216098965       -2.1860463641
 C          2.0391448749        0.9617427637       -2.4401562754
 C          3.0005533181        0.6423403709       -1.4749918232
 N          4.3031697670        0.7567148404       -1.6941186630
 C          5.1834674462        0.4434143846       -0.7719570423
 C          4.7135728163       -0.0410126343        0.5203672801
 N          3.4383166266       -0.1521103905        0.7506144554
 C          2.5318929219        0.1653078824       -0.1839058719
 C          1.1674108507        0.0465527278        0.0368098795
 C          5.8705667841       -0.3116615588        1.3358577785
 C          6.0758575428       -0.7780727367        2.6190292065
 C          7.3975184193       -0.9104646954        3.0670283779
 C          8.4909818065       -0.5974108248        2.2871030116
 C          8.3153671049       -0.1179822202        0.9693927742
 C          9.3074197089        0.2501052907        0.0306178423
 C          8.9432482705        0.7003238235       -1.2213639628
 C          7.6109955543        0.8210219758       -1.6371692366
 C          6.6138270607        0.4695942520       -0.7443902151
 C          6.9946149369        0.0073894260        0.5408917198
 C         -1.7357378971        0.5048704787        0.5735999482
 C         -3.0842268283        0.3754403014        0.8225258195
 C         -5.6182899366        2.0700433328        0.9131030537
 C         -6.2665340173        2.9564409596        1.7504450918
 H         -7.7872925607        3.2155098649        3.2370114495
 H         -8.4271333305        0.8300336526        3.2344567111
 H         -7.2699836493       -0.7594927968        1.7590422538
 H         -4.4428534033       -2.6427324033       -0.3531450495
 H         -5.6965429957       -4.4709028945       -1.4167711029
 H         -8.0100331403       -4.1008935402       -2.1982743373
 H         -9.0563113413       -1.8819525831       -1.9130993266
 H         -7.7997219133       -0.0472783965       -0.8645803878
 H         -4.0914406625       -0.6457184208       -2.2395388286
 H         -1.6943980103       -0.4278321556       -2.6710878308
 H         -0.0170140115        1.0991604338       -2.9495504725
 H          2.3883797922        1.3281803590       -3.3929312209
 H          0.8487387566       -0.3367953446        0.9934633208
 H          5.2504269833       -1.0355281812        3.2647675786
 H          7.5606255964       -1.2752431575        4.0714644955
 H          9.4893401705       -0.7180876076        2.6820498534
 H         10.3509957184        0.1769836918        0.2991103805
 H          9.7201986021        0.9753246116       -1.9209122542
 H          7.3774948340        1.1782821888       -2.6281118765
 H         -1.0835236489        0.8430075000        1.3645829547
 H         -3.4774420028        0.5925161499        1.8049169289
 H         -4.8357835086        2.4149030679        0.2533500622
 H         -5.9830654705        3.9984339438        1.7431581228
  62
  -97.1796787313000       0.152381423235013      !
 C         -7.0144635326        2.6109511324        2.6665499345
 C         -7.4822688842        1.3067624019        2.6518631905
 C         -6.9259940538        0.3733857394        1.7992919244
 C         -5.8899947976        0.7378121219        0.9387377799
 N         -5.3238793141       -0.2059145034        0.0743804497
 C         -6.1418283366       -1.1548612466       -0.5466812396
 C         -5.6870880784       -2.4578524621       -0.7521667569
 C         -6.4997789388       -3.3878562587       -1.3703269540
 C         -7.7751951067       -3.0404785781       -1.7858923633
 C         -8.2331600500       -1.7488859628       -1.5806082655
 C         -7.4260159610       -0.8095091606       -0.9698552022
 C         -3.9515176190       -0.1787020687       -0.1819561186
 C         -3.4498328605       -0.5068551981       -1.4430818411
 C         -2.0968723480       -0.4487555851       -1.6946115394
 C         -1.1886138317       -0.0567251416       -0.7069208463
 C          0.2407997880        0.0561154185       -0.9865713436
 C          0.6948956737        0.4358649212       -2.2556778141
 C          2.0352484647        0.5935782122       -2.5221785802
 C          3.0054148674        0.3842254372       -1.5352791540
 N          4.3015371572        0.5472927840       -1.7566640803
 C          5.1882927427        0.3564906008       -0.8064435264
 C          4.7316661268       -0.0590423551        0.5140273484
 N          3.4631592271       -0.2271820353        0.7437656642
 C          2.5490274659       -0.0207980397       -0.2154534189
 C          1.1899124601       -0.1757100103        0.0117080373
 C          5.8919622003       -0.1836854747        1.3613583144
 C          6.1073332099       -0.5275451721        2.6806731478
 C          7.4266898856       -0.5213492547        3.1548463469
 C          8.5076624442       -0.1890376644        2.3656859396
 C          8.3213115246        0.1672777343        1.0110262603
 C          9.2998902674        0.5384748327        0.0591604928
 C          8.9258394876        0.8610408985       -1.2288277759
 C          7.5963230756        0.8454827620       -1.6698432395
 C          6.6120955649        0.4868835054       -0.7653200660
 C          7.0032547589        0.1544742637        0.5568182356
 C         -1.6997535555        0.2519635531        0.5573924922
 C         -3.0498581730        0.1898961886        0.8189839794
 C         -5.4268863176        2.0539727561        0.9531271853
 C         -5.9851234775        2.9778365863        1.8145517281
 H         -7.4492539610        3.3364692109        3.3367486279
 H         -8.2803525639        1.0108105933        3.3163689597
 H         -7.2836948003       -0.6458428893        1.7970771560
 H         -4.6978308009       -2.7333311025       -0.4174780108
 H         -6.1376742827       -4.3941829548       -1.5198496485
 H         -8.4077354855       -3.7708996729       -2.2664563236
 H         -9.2233108140       -1.4672985891       -1.9069460787
 H         -7.7801755136        0.2000013085       -0.8208421896
 H         -4.1330576792       -0.7975995333       -2.2275764264
 H         -1.7360617222       -0.7226409655       -2.6744863766
 H         -0.0202956865        0.6440482038       -3.0366322644
 H          2.3734872077        0.9013098702       -3.4994453227
 H          0.8864578060       -0.5069550355        0.9923220009
 H          5.2915069646       -0.7927206383        3.3353931480
 H          7.5977776172       -0.7888328550        4.1880970732
 H          9.5045848513       -0.1990392537        2.7820278117
 H         10.3405691403        0.5692451494        0.3463776253
 H          9.6923429191        1.1417468237       -1.9377421183
 H          7.3548375713        1.1080105725       -2.6882374202
 H         -1.0284677249        0.5664352592        1.3417702407
 H         -3.4208946372        0.4309365728        1.8043448182
 H         -4.6326552583        2.3443849285        0.2812942075
 H         -5.6191035845        3.9938162968        1.8139139387
  62
  -97.1789910202000       7.360069013968175E-002 !
 C         -7.3654544106        2.7967211032        2.1617956828
 C         -7.7906816534        1.4818301334        2.2647375979
 C         -7.1248919311        0.4749206237        1.5937772904
 C         -6.0199440006        0.7744961947        0.7953939460
 N         -5.3454763381       -0.2312650477        0.1012934128
 C         -6.0292769884       -1.3119840615       -0.4571198324
 C         -5.4117137673       -2.5617314455       -0.5345391046
 C         -6.0788681536       -3.6347106430       -1.0913158195
 C         -7.3687528530       -3.4851787961       -1.5749909707
 C         -7.9856749736       -2.2465249838       -1.5030686366
 C         -7.3253001735       -1.1650790126       -0.9539348577
 C         -3.9626257618       -0.1112987068       -0.1041866964
 C         -3.4120026485       -0.3474071834       -1.3634658242
 C         -2.0599734082       -0.1828118925       -1.5714493905
 C         -1.2122157767        0.2003519135       -0.5305118048
 C          0.2157986858        0.4113511764       -0.7743966652
 C          0.6345958898        1.0845112935       -1.9261792074
 C          1.9687500638        1.3235983777       -2.1670925206
 C          2.9569811107        0.8758678143       -1.2850780665
 N          4.2503957986        1.0805320149       -1.4988925052
 C          5.1614245580        0.6209647707       -0.6751497370
 C          4.7413276839       -0.1322050120        0.5002326131
 N          3.4738049674       -0.3148015467        0.7368924256
 C          2.5349337338        0.1529921204       -0.0957283210
 C          1.1775634250       -0.0377957546        0.1291035330
 C          5.9286805907       -0.5500573005        1.2010473560
 C          6.1859784941       -1.2890251198        2.3390460460
 C          7.5245172881       -1.4995264415        2.6987212893
 C          8.5864461173       -1.0016354043        1.9731465729
 C          8.3582411737       -0.2400465933        0.8046116559
 C          9.3118361060        0.3448201912       -0.0612720571
 C          8.8989237634        1.0550005048       -1.1694810335
 C          7.5513624537        1.2361561968       -1.5068673557
 C          6.5917745405        0.6763780456       -0.6822399742
 C          7.0216369355       -0.0447091186        0.4597390493
 C         -1.7665621100        0.4011312098        0.7344661736
 C         -3.1216330961        0.2593253903        0.9450054497
 C         -5.5926701555        2.1001629926        0.7001030203
 C         -6.2615103707        3.0980513818        1.3807306576
 H         -7.8895140273        3.5803394638        2.6870556389
 H         -8.6443362661        1.2367757215        2.8791131768
 H         -7.4511627218       -0.5505313878        1.6863304524
 H         -4.4099307407       -2.6820814204       -0.1490380415
 H         -5.5908516745       -4.5968676601       -1.1399984243
 H         -7.8887316974       -4.3269690633       -2.0057696843
 H         -8.9872421691       -2.1183370806       -1.8861605908
 H         -7.8036282307       -0.1974931781       -0.9149085517
 H         -4.0575564383       -0.6469339051       -2.1762845281
 H         -1.6471687543       -0.3651713701       -2.5524904236
 H         -0.1041922526        1.4526243950       -2.6220678408
 H          2.2869376057        1.8645760072       -3.0446221393
 H          0.8847563556       -0.5829964712        1.0131713929
 H          5.3875884495       -1.6990159889        2.9381963972
 H          7.7274146352       -2.0801540577        3.5876939568
 H          9.5996351260       -1.1936218373        2.2953259825
 H         10.3651371258        0.2326810861        0.1498578126
 H          9.6472747566        1.4938289555       -1.8146501584
 H          7.2780637428        1.7970619181       -2.3872764878
 H         -1.1272517698        0.6961034176        1.5531765258
 H         -3.5443356461        0.4369907221        1.9232516033
 H         -4.7409121599        2.3397425309        0.0807615721
 H         -5.9230520097        4.1197934277        1.2924942287
  62
  -97.1784971298000       4.364209337706252E-002 !
 C         -7.3472504225        2.8920709641        2.0359486519
 C         -7.8272791145        1.5964118971        2.1407038570
 C         -7.1699907286        0.5523388257        1.5201869429
 C         -6.0189983746        0.7941017923        0.7683439454
 N         -5.3552559058       -0.2496956389        0.1222295408
 C         -6.0558535870       -1.3180171484       -0.4406485195
 C         -5.4770053783       -2.5879991795       -0.4727426444
 C         -6.1596448697       -3.6504233308       -1.0312313755
 C         -7.4267331061       -3.4696472674       -1.5621988447
 C         -8.0041403898       -2.2102682679       -1.5375595101
 C         -7.3276472954       -1.1394892541       -0.9871174046
 C         -3.9661627645       -0.1667367949       -0.0609463430
 C         -3.4017067247       -0.4331766333       -1.3078891660
 C         -2.0465901615       -0.2781012131       -1.5022783090
 C         -1.2103415267        0.1232986737       -0.4591977516
 C          0.2151098193        0.3551926891       -0.7043570176
 C          0.6089743024        1.0582607296       -1.8469135069
 C          1.9360243534        1.3261378509       -2.0964607959
 C          2.9399961198        0.8757494352       -1.2347610711
 N          4.2277388584        1.1054663580       -1.4603291946
 C          5.1556771011        0.6407368496       -0.6603570936
 C          4.7638697061       -0.1453049187        0.5035258156
 N          3.5013315315       -0.3501334522        0.7532920519
 C          2.5446936497        0.1212371091       -0.0557811496
 C          1.1921260164       -0.0945524395        0.1812087646
 C          5.9672646765       -0.5630337513        1.1751134308
 C          6.2536635978       -1.3264108027        2.2901968348
 C          7.6005256174       -1.5272833456        2.6228235376
 C          8.6441332430       -0.9973110650        1.8932948429
 C          8.3866503517       -0.2104621041        0.7477942067
 C          9.3179906470        0.4078835833       -0.1189005997
 C          8.8781439317        1.1384956915       -1.2031932618
 C          7.5230302562        1.3086949880       -1.5146997091
 C          6.5851266078        0.7164889413       -0.6880520784
 C          7.0421048819       -0.0251841410        0.4293526607
 C         -1.7753805268        0.3372987173        0.7982450250
 C         -3.1341015037        0.2062920036        0.9945223812
 C         -5.5374889832        2.1010739501        0.6707604038
 C         -6.1970661766        3.1359767390        1.3032067641
 H         -7.8646561101        3.7049235556        2.5218362751
 H         -8.7180885494        1.3954426882        2.7171587201
 H         -7.5393753319       -0.4579328697        1.6168777637
 H         -4.4932786910       -2.7320809785       -0.0506028266
 H         -5.7020755236       -4.6285101844       -1.0443602710
 H         -7.9592106569       -4.3030324741       -1.9940915998
 H         -8.9864754991       -2.0574004429       -1.9594983480
 H         -7.7741574552       -0.1560705057       -0.9863031161
 H         -4.0392256937       -0.7415090763       -2.1236941419
 H         -1.6223394019       -0.4760618102       -2.4754108720
 H         -0.1445174796        1.4257354014       -2.5271797812
 H          2.2357818419        1.8908359836       -2.9654136481
 H          0.9165240800       -0.6592451620        1.0585979593
 H          5.4709498004       -1.7624390396        2.8916255432
 H          7.8256097075       -2.1276100694        3.4931620615
 H          9.6648728333       -1.1841790832        2.1937745719
 H         10.3760132824        0.3045756166        0.0722075319
 H          9.6100779476        1.6026640023       -1.8494463684
 H          7.2275884008        1.8863446660       -2.3769114511
 H         -1.1428308023        0.6383060822        1.6201076298
 H         -3.5672435849        0.3998867945        1.9651430250
 H         -4.6509174600        2.2983842934        0.0865513501
 H         -5.8153906279        4.1421560494        1.2127499441
  62
  -97.1778102854000       2.109860507413495E-002 !
 C         -7.3853957596        2.1436788971       -2.8773274250
 C         -6.3780174470        2.7072889216       -2.1108535584
 C         -5.6937152225        1.9455687785       -1.1841813041
 C         -6.0072527798        0.5962045468       -1.0146457267
 N         -5.3178905646       -0.1775166620       -0.0779128965
 C         -5.9819036064       -1.1827505771        0.6320863062
 C         -5.3322832829       -2.3813623326        0.9298161493
 C         -5.9883879212       -3.3714233284        1.6341805366
 C         -7.2981850706       -3.1884241713        2.0474729895
 C         -7.9483017624       -2.0006781842        1.7533726324
 C         -7.2991934258       -1.0015935250        1.0548664143
 C         -3.9551220737        0.0415085295        0.1482716000
 C         -3.0953956726        0.3488098500       -0.9075628869
 C         -1.7502546088        0.5399058084       -0.6789058248
 C         -1.2137353999        0.4406526648        0.6069541979
 C          0.2171709874        0.6227501286        0.8466590198
 C          0.6760404169        1.2628036022        2.0030724561
 C          2.0212874697        1.4267711308        2.2441399440
 C          2.9854664651        0.9437347927        1.3526245553
 N          4.2879728297        1.0640853643        1.5699781963
 C          5.1711380107        0.5831726068        0.7259686151
 C          4.7047409293       -0.0905212875       -0.4798768916
 N          3.4299359012       -0.2026503944       -0.7126655055
 C          2.5206798864        0.2780850828        0.1462244647
 C          1.1563623922        0.1482143403       -0.0695794818
 C          5.8639471361       -0.5305478333       -1.2145002734
 C          6.0723202524       -1.2130738266       -2.3963662741
 C          7.3951550340       -1.4688197962       -2.7835805233
 C          8.4866715775       -1.0717805851       -2.0400211377
 C          8.3078479214       -0.3711421025       -0.8257941122
 C          9.2974708173        0.1085651352        0.0641250323
 C          8.9300497817        0.7737494885        1.2154170087
 C          7.5967279260        1.0122984238        1.5729155877
 C          6.6018429305        0.5563384496        0.7258278285
 C          6.9860452867       -0.1247468922       -0.4571194982
 C         -2.0840636669        0.1465244388        1.6591704263
 C         -3.4287529696       -0.0529646877        1.4376739485
 C         -7.0184504907        0.0320954095       -1.7939210741
 C         -7.7011213374        0.8045150032       -2.7127943225
 H         -7.9201784958        2.7433179953       -3.5977346910
 H         -6.1282048281        3.7512824949       -2.2290049935
 H         -4.9171522453        2.3897484788       -0.5790460082
 H         -4.3149498779       -2.5295689524        0.5987289212
 H         -5.4754115665       -4.2958471184        1.8543501265
 H         -7.8083715373       -3.9656419378        2.5953607147
 H         -8.9666839683       -1.8468926732        2.0778648458
 H         -7.8034433720       -0.0715861693        0.8371169428
 H         -3.4923676241        0.4262609501       -1.9092263665
 H         -1.1024419515        0.7835571912       -1.5075047930
 H         -0.0378224542        1.6606356917        2.7083940784
 H          2.3682927153        1.9330761246        3.1315005337
 H          0.8385116757       -0.3726234764       -0.9593127617
 H          5.2484100692       -1.5444488389       -3.0094844933
 H          7.5606918824       -2.0037058842       -3.7081657192
 H          9.4859801203       -1.2965300731       -2.3837659038
 H         10.3417281265       -0.0495902249       -0.1619259585
 H          9.7051556495        1.1303024850        1.8795327288
 H          7.3607628552        1.5365961387        2.4860388825
 H         -1.6949694864        0.0522258590        2.6618996664
 H         -4.0864055065       -0.2847289089        2.2627424729
 H         -7.2576808035       -1.0146831500       -1.6766867981
 H         -8.4798436270        0.3547815892       -3.3107966714
  62
  -97.1772512875000       1.167766722872916E-002 !
 C         -7.4607000605        2.1126201147       -2.8429780172
 C         -6.4687950005        2.7005394834       -2.0744044316
 C         -5.7579987184        1.9521668058       -1.1568917922
 C         -6.0288198411        0.5922147372       -0.9984987641
 N         -5.3109446206       -0.1659421144       -0.0712917148
 C         -5.9304560483       -1.2069297209        0.6264159679
 C         -5.2272478009       -2.3780549390        0.9127339701
 C         -5.8376352055       -3.4038752913        1.6067558053
 C         -7.1547268029       -3.2851756728        2.0202903002
 C         -7.8581730621       -2.1255161597        1.7369328157
 C         -7.2550178008       -1.0905314585        1.0494245622
 C         -3.9542611998        0.0958429354        0.1501158687
 C         -3.1058816346        0.4196715919       -0.9095286950
 C         -1.7632441774        0.6338523540       -0.6865818645
 C         -1.2203854531        0.5448478088        0.5971928155
 C          0.2120049076        0.7267589729        0.8291489997
 C          0.6801547989        1.3762504173        1.9762197878
 C          2.0281227633        1.5228328184        2.2149015529
 C          2.9844977258        1.0096081794        1.3318937713
 N          4.2890187064        1.1042645889        1.5519314308
 C          5.1637029902        0.5927592222        0.7174079332
 C          4.6865227183       -0.0832083500       -0.4829243544
 N          3.4102426818       -0.1698634168       -0.7187548147
 C          2.5093805514        0.3385563993        0.1325435933
 C          1.1431626470        0.2289502423       -0.0826773770
 C          5.8375905744       -0.5586633059       -1.2075795784
 C          6.0342929789       -1.2583820064       -2.3814076577
 C          7.3520797436       -1.5504728240       -2.7598653964
 C          8.4496811037       -1.1724847475       -2.0152672621
 C          8.2827384986       -0.4554491048       -0.8089775630
 C          9.2797795248        0.0081553891        0.0809794351
 C          8.9237623886        0.6939437173        1.2236688913
 C          7.5951394364        0.9696783709        1.5719241035
 C          6.5933054864        0.5303911943        0.7244757862
 C          6.9659135545       -0.1724907630       -0.4492283905
 C         -2.0820934158        0.2466802457        1.6551152061
 C         -3.4235195502        0.0215875093        1.4388521960
 C         -7.0240756207        0.0036488930       -1.7802262375
 C         -7.7334818833        0.7626763738       -2.6900312877
 H         -8.0165371641        2.7016833235       -3.5560272809
 H         -6.2523520882        3.7527682246       -2.1834928568
 H         -4.9934469803        2.4145764210       -0.5502747246
 H         -4.2040994308       -2.4769506419        0.5811033621
 H         -5.2828518036       -4.3060434384        1.8181361450
 H         -7.6292378930       -4.0904704668        2.5596801568
 H         -8.8829634636       -2.0220543075        2.0611867747
 H         -7.8013794409       -0.1825329686        0.8404889697
 H         -3.5085490125        0.4870636329       -1.9096917883
 H         -1.1219386066        0.8845148373       -1.5181683740
 H         -0.0279002063        1.7933602668        2.6763226009
 H          2.3831040102        2.0352576498        3.0955445077
 H          0.8166364654       -0.2970868151       -0.9661404092
 H          5.2051101626       -1.5759048486       -2.9947821275
 H          7.5085075165       -2.0987242723       -3.6782633671
 H          9.4446398179       -1.4252536342       -2.3519682206
 H         10.3207909215       -0.1784118751       -0.1382458825
 H          9.7045128986        1.0374012935        1.8882362551
 H          7.3680431271        1.5085868524        2.4787565168
 H         -1.6874483591        0.1655083906        2.6568257408
 H         -4.0744874676       -0.2199340561        2.2664529281
 H         -7.2293412454       -1.0512706216       -1.6728039237
 H         -8.4989099073        0.2940296467       -3.2906387360
