  111
       -152.36764094
 C          8.7855878173        0.4727531636       -1.3936925261
 C          7.7037708681        1.3491003026       -2.0308344799
 C          8.0889795224        2.8183925363       -1.8085856094
 C          7.6671924254        1.0432976635       -3.5347673927
 C          6.3257575983        1.1009832249       -1.4356950843
 C          5.2365804746        1.8343150235       -1.9248219337
 C          3.9529857321        1.6866622121       -1.4401083108
 C          3.7454561248        0.7763088442       -0.4153492424
 C          4.8191300179        0.0045229123        0.0740891742
 C          6.1008440934        0.1726089652       -0.4332842585
 C          4.2722791641       -0.8665814134        1.0775077606
 C          4.8410387445       -1.8227320736        1.9082515791
 C          4.0483779000       -2.5007352280        2.8191669844
 C          4.6009896725       -3.5660006491        3.7545463546
 C          4.3987100233       -3.1141052127        5.2075772161
 C          3.8555660667       -4.8860648636        3.5119926306
 C          6.0954027753       -3.8195783390        3.5383131886
 C          2.6865268569       -2.1793068484        2.8888044071
 C          2.0952024481       -1.2345837859        2.0745866700
 C          2.8915555726       -0.5859404987        1.1432107414
 N          2.5808962932        0.4088598849        0.2346547410
 C          1.3161705550        0.9492984423        0.0044924525
 C          1.1504826244        2.3255964444       -0.0988726611
 C         -0.1104880350        2.8659020498       -0.3374099218
 C         -0.2151730284        4.3380248447       -0.4513419026
 O          0.7266477471        5.0219561283       -0.8066522822
 C         -1.5196468745        4.9720251424       -0.0973947443
 C         -1.7864960540        6.2623564591       -0.5539083547
 C         -2.9864378958        6.8573685387       -0.2042178422
 C         -3.8715316751        6.1484902796        0.5923554967
 C         -3.5090570606        4.8718077718        1.0025489824
 N         -2.3705496181        4.2961951145        0.6714105477
 C         -1.2087077813        2.0272302256       -0.4853707861
 C         -1.0497696938        0.6509972335       -0.3544870810
 N         -2.1631706382       -0.1833590046       -0.4576950134
 C         -3.3739607334        0.0247666184        0.1778237315
 C         -3.7600314074        1.0222467089        1.0600929992
 C         -5.0362909736        0.9604512541        1.5813036297
 C         -5.9436077598       -0.0598390161        1.2645427645
 C         -7.3282969828       -0.0324127449        1.8953081351
 C         -8.2061583376       -1.2002059070        1.4371978539
 C         -8.0356119382        1.2737336380        1.5072216006
 C         -7.1865807669       -0.1135080325        3.4219438173
 C         -5.5365462973       -1.0616856893        0.3995682458
 C         -4.2568244060       -1.0275004073       -0.1394802940
 C         -3.5416534131       -1.9086978116       -1.0212961601
 C         -3.8943755280       -3.0819599600       -1.6747404720
 C         -2.9784614168       -3.7101800457       -2.5020196363
 C         -3.2951283418       -4.9976355695       -3.2487322079
 C         -3.1750881547       -4.7467058909       -4.7586039511
 C         -4.7096549935       -5.5097551130       -2.9636317655
 C         -2.3001355227       -6.0860341790       -2.8218928531
 C         -1.7152798361       -3.1265634342       -2.6661326109
 C         -1.3379612900       -1.9617811994       -2.0290982803
 C         -2.2545128902       -1.3545394045       -1.1847052186
 C          0.2101917423        0.1119851956       -0.1161784523
 H          8.8677414244        0.6679536343       -0.3270749885
 H          8.5750238035       -0.5827555666       -1.5490200324
 H          9.7476945941        0.6942152451       -1.8511520700
 H          7.3845182654        3.4898140208       -2.2909255905
 H          8.1017993672        3.0457534105       -0.7446806418
 H          9.0789902715        3.0127777641       -2.2157139428
 H          8.6517735523        1.1942835876       -3.9723200565
 H          6.9624921649        1.6872517544       -4.0530072498
 H          7.3698260113        0.0098291469       -3.7004139791
 H          5.3937616480        2.5490551387       -2.7174458225
 H          3.1418477421        2.2619772794       -1.8586777600
 H          6.8970586590       -0.4313922396       -0.0327236412
 H          5.8978691320       -2.0119710034        1.8277710823
 H          3.3455885355       -2.9789335835        5.4372355667
 H          4.8045130867       -3.8566873020        5.8913437190
 H          4.9090611283       -2.1688777572        5.3806996827
 H          3.9738065275       -5.1988980519        2.4765696971
 H          2.7936852256       -4.7864133819        3.7179034115
 H          4.2550560220       -5.6662845531        4.1564349028
 H          6.4333537489       -4.5986898186        4.2185754185
 H          6.6772780030       -2.9232660214        3.7394846422
 H          6.2913748277       -4.1526306063        2.5218434356
 H          2.0608115718       -2.6816541826        3.6103278234
 H          1.0463392815       -1.0027565252        2.1816815462
 H          1.9897660057        2.9899614906        0.0290969327
 H         -1.0547980808        6.7644682328       -1.1675592550
 H         -3.2244949967        7.8546008192       -0.5441660760
 H         -4.8172420886        6.5722383647        0.8917395880
 H         -4.1635351781        4.2782218918        1.6276784093
 H         -2.1784120048        2.4284798147       -0.7213852210
 H         -3.0879915319        1.8189918388        1.3379520153
 H         -5.3361445177        1.7357694042        2.2699320963
 H         -9.1833756965       -1.1268801202        1.9102073606
 H         -8.3515610027       -1.1799925790        0.3596951594
 H         -7.7674192790       -2.1538142232        1.7209171788
 H         -8.1144458540        1.3503172032        0.4247671432
 H         -7.4941217003        2.1421367161        1.8714100578
 H         -9.0380959451        1.2969610327        1.9293446840
 H         -8.1683820652       -0.1158086067        3.8906888002
 H         -6.6675939376       -1.0278235292        3.7020205658
 H         -6.6242456341        0.7293658536        3.8137278531
 H         -6.1860347207       -1.8787194767        0.1344914259
 H         -4.8851066647       -3.4767035812       -1.5260263761
 H         -3.8603387275       -3.9583779341       -5.0633941555
 H         -2.1676755861       -4.4458641442       -5.0318926337
 H         -3.4215938474       -5.6515569739       -5.3101110108
 H         -5.4580008871       -4.7864817085       -3.2786284269
 H         -4.8417070530       -5.7235327239       -1.9056447656
 H         -4.8799914881       -6.4312012838       -3.5166485953
 H         -1.2779733197       -5.8038964933       -3.0578033597
 H         -2.5225219589       -7.0195404146       -3.3345258706
 H         -2.3673592482       -6.2561944043       -1.7492952939
 H         -0.9970217638       -3.5955822041       -3.3207997770
 H         -0.3612820092       -1.5356622279       -2.2029216279
 H          0.3307151535       -0.9554386710       -0.0274203391
