  51
  -80.2063632451000       0.263006411971769      !
 C          6.0206900331        0.0010774147        0.1894717428
 C          5.4412808011        0.0195647808       -1.0687928346
 C          4.0638147102        0.0195715725       -1.1986268095
 C          3.2657913370        0.0013325405       -0.0616404192
 N          1.8460542646       -0.0004023973       -0.1817144090
 C          1.1833010088        1.2045992562       -0.2998242036
 C          1.9003748829        2.4042002745       -0.3719082535
 C          1.2431616825        3.6061865084       -0.5210009303
 C         -0.1414887883        3.6425186770       -0.6060737620
 C         -0.8587816833        2.4652211710       -0.5230739084
 C         -0.2157741739        1.2444299187       -0.3702068132
 C         -1.0264535501       -0.0043844513       -0.1933914291
 C         -2.2922871198       -0.0177359760       -1.0201679389
 C         -2.4156815698       -0.0426978428       -2.3843476709
 C         -3.6957725141       -0.0535421900       -2.9400170444
 C         -4.8195756908       -0.0388424213       -2.1206474111
 C         -4.7106072005       -0.0135669704       -0.7451252028
 C         -3.4303678806       -0.0032102603       -0.1792137029
 C         -3.0059653428        0.0187944513        1.1724001047
 N         -3.6898051159        0.0396488117        2.3421576305
 C         -3.0036287457        0.0569937990        3.4699015792
 C         -1.6283334177        0.0541416847        3.5066804975
 N         -0.9246959987        0.0335529362        2.3361662914
 C         -1.5921607935        0.0171657633        1.2322257976
 C         -0.2126965981       -1.2550896906       -0.3376905966
 C         -0.8523149797       -2.4810043268       -0.4616390904
 C         -0.1315117147       -3.6575017691       -0.5219110555
 C          1.2534841751       -3.6148222336       -0.4449075504
 C          1.9072896710       -2.4078452495       -0.3236585024
 C          1.1863152612       -1.2095313879       -0.2715794946
 C          3.8439245350       -0.0170143194        1.2000492234
 C          5.2227379767       -0.0174343176        1.3214967198
 H          7.0956565578        0.0006984926        0.2871871927
 H          6.0620143593        0.0332881974       -1.9515571986
 H          3.5988342572        0.0337492536       -2.1734760037
 H          2.9770275840        2.3867611831       -0.3048450772
 H          1.8136287395        4.5213526705       -0.5708986349
 H         -0.6558581133        4.5833478410       -0.7252918219
 H         -1.9368720718        2.4812137549       -0.5725946041
 H         -1.5410065123       -0.0543980510       -3.0194025202
 H         -3.8132281795       -0.0737885567       -4.0126551169
 H         -5.8008644218       -0.0478718083       -2.5737570123
 H         -5.5826220197       -0.0025662885       -0.1101384948
 H         -3.5753694892        0.0739721841        4.3862666096
 H         -1.0646496589        0.0680398917        4.4223800871
 H         -1.9304328419       -2.5014136305       -0.5078209230
 H         -0.6432335069       -4.6022643599       -0.6193647153
 H          1.8268378256       -4.5288634907       -0.4801881163
 H          2.9843881549       -2.3850433239       -0.2649757891
 H          3.2077690878       -0.0315299253        2.0722631631
 H          5.6737445223       -0.0318014677        2.3022115542
  51
  -80.2060018366000       0.179421502739180      !
 C          5.8779099655        0.0451626262        0.7728718715
 C          4.9159323391        0.1719780549        1.7611706329
 C          3.5724277307        0.1497811989        1.4295227720
 C          3.1947444256        0.0003808721        0.1023399622
 N          1.8081678176       -0.0126305537       -0.2204966413
 C          1.1648712378        1.1894516027       -0.4378141243
 C          1.8960364966        2.3762791821       -0.5531612299
 C          1.2558895154        3.5690458173       -0.8128310645
 C         -0.1226736706        3.6063812333       -0.9668647854
 C         -0.8550709165        2.4415978238       -0.8408625296
 C         -0.2290019784        1.2312319469       -0.5797284407
 C         -1.0356491497       -0.0085972127       -0.3358082937
 C         -2.3771229906       -0.0164652361       -1.0275989672
 C         -2.6424106775       -0.0342037003       -2.3721341038
 C         -3.9731050127       -0.0361131765       -2.7921715598
 C         -5.0057643082       -0.0206536632       -1.8606046319
 C         -4.7543507087       -0.0028646481       -0.5037055943
 C         -3.4224953321       -0.0001722129       -0.0735151905
 C         -2.8611167140        0.0184773762        1.2275027478
 N         -3.4199376924        0.0381221786        2.4621211320
 C         -2.6201369565        0.0534029353        3.5124493072
 C         -1.2486081390        0.0510044651        3.4067841935
 N         -0.6691593967        0.0314796756        2.1696149917
 C         -1.4499133554        0.0155368617        1.1419502137
 C         -0.2329234144       -1.2591258630       -0.5370599660
 C         -0.8654703490       -2.4748263060       -0.7537401543
 C         -0.1409067350       -3.6491421899       -0.8238278389
 C          1.2352693202       -3.6158394406       -0.6497435529
 C          1.8822437701       -2.4177509114       -0.4348397497
 C          1.1611248935       -1.2203442488       -0.3892019453
 C          4.1573814667       -0.1261127081       -0.8914050430
 C          5.4984505466       -0.1040603863       -0.5512833187
 H          6.9252739536        0.0626984787        1.0334182164
 H          5.2111738662        0.2881871866        2.7929442419
 H          2.8077507224        0.2475748246        2.1854014881
 H          2.9686540051        2.3553382858       -0.4379091621
 H          1.8352640234        4.4760382659       -0.8976915821
 H         -0.6226722994        4.5400830617       -1.1724052114
 H         -1.9294716799        2.4614713243       -0.9403906839
 H         -1.8383435480       -0.0463735894       -3.0944232677
 H         -4.2012007187       -0.0494707800       -3.8469846840
 H         -6.0288772824       -0.0218717667       -2.2092868397
 H         -5.5558293672        0.0100387381        0.2180467589
 H         -3.0937653109        0.0684190704        4.4831859861
 H         -0.5937779374        0.0632273406        4.2598156986
 H         -1.9392028085       -2.4914422877       -0.8606743781
 H         -0.6454145248       -4.5870408432       -0.9966167081
 H          1.8073606749       -4.5307736195       -0.6825495119
 H          2.9521827735       -2.4029452050       -0.2974605703
 H          3.8483979733       -0.2391016875       -1.9203217260
 H          6.2480902862       -0.2026148743       -1.3219782735
  51
  -80.2056858510000       0.128427362191776      !
 C          5.6786923691        0.0168868593        1.2169451514
 C          5.4743932644        0.0163261798       -0.1532060592
 C          4.1881314022        0.0111715387       -0.6646185316
 C          3.1052097999        0.0068362183        0.2051590479
 N          1.7679245350        0.0009710319       -0.2809331788
 C          1.1406093861        1.1996794459       -0.5557341600
 C          1.8740777879        2.3834007336       -0.6737718905
 C          1.2414518894        3.5641491061       -1.0013354398
 C         -0.1288739118        3.5905069790       -1.2172861337
 C         -0.8670310901        2.4303275213       -1.0750756776
 C         -0.2487581367        1.2338968673       -0.7459427643
 C         -1.0418312454       -0.0027296730       -0.4462261852
 C         -2.4425452689       -0.0109985668       -1.0019697627
 C         -2.8425745586       -0.0235407711       -2.3134949013
 C         -4.2086172317       -0.0289532266       -2.5974815481
 C         -5.1426893064       -0.0224858026       -1.5666852586
 C         -4.7557419138       -0.0101323146       -0.2420598132
 C         -3.3876260797       -0.0036232310        0.0519548481
 C         -2.6996200280        0.0097171459        1.2913254646
 N         -3.1327335538        0.0184384636        2.5759893673
 C         -2.2309556598        0.0276371568        3.5405833888
 C         -0.8769803394        0.0306868400        3.2986099228
 N         -0.4227213371        0.0232573217        2.0091548270
 C         -1.3056605547        0.0130550029        1.0661399556
 C         -0.2476429205       -1.2468222340       -0.7112888388
 C         -0.8646145918       -2.4532473504       -1.0044154289
 C         -0.1254198434       -3.6167775597       -1.1085473475
 C          1.2446903878       -3.5825057559       -0.8916795721
 C          1.8760767024       -2.3915286510       -0.6011295906
 C          1.1411876339       -1.2056243991       -0.5197850873
 C          3.3068172561        0.0068700423        1.5785002558
 C          4.5960238672        0.0117431843        2.0812039799
 H          6.6836460221        0.0204450303        1.6111447903
 H          6.3179940228        0.0193407739       -0.8271362460
 H          4.0161978597        0.0101501430       -1.7312403805
 H          2.9400824517        2.3706400226       -0.5071984073
 H          1.8207493808        4.4707982136       -1.0905221444
 H         -0.6207898664        4.5147561355       -1.4779547235
 H         -1.9373917177        2.4459976113       -1.2116624345
 H         -2.1151235943       -0.0281459655       -3.1130870628
 H         -4.5418845400       -0.0375534323       -3.6240273269
 H         -6.1955379237       -0.0266485839       -1.8113163375
 H         -5.4804590724       -0.0050977841        0.5569051888
 H         -2.6047021319        0.0329472823        4.5541196747
 H         -0.1408803380        0.0382423516        4.0830448458
 H         -1.9348066025       -2.4736322737       -1.1417486176
 H         -0.6161436412       -4.5493823110       -1.3400143769
 H          1.8247232418       -4.4910922028       -0.9515743987
 H          2.9420636153       -2.3720877918       -0.4345813239
 H          2.4469527990        0.0043459460        2.2313255021
 H          4.7549700717        0.0121427324        3.1490080565
  51
  -80.2056856364000       0.128398201112393      !
 C          6.0525370947       -0.0071844580       -0.5638388823
 C          5.4864838568        0.0037428980        0.7003346797
 C          4.1100670286        0.0065718070        0.8460601930
 C          3.3002729816       -0.0014012387       -0.2816316164
 N          1.8819142077       -0.0004032073       -0.1418754018
 C          1.2128545812        1.2072908922       -0.1400616704
 C          1.9263435308        2.4097368087       -0.2069223318
 C          1.2657053192        3.6186928061       -0.2234243055
 C         -0.1209259985        3.6603388134       -0.1803184255
 C         -0.8330713662        2.4794514812       -0.1126748824
 C         -0.1860400253        1.2508883559       -0.0900072361
 C         -1.0045949292       -0.0014544684        0.0116656805
 C         -2.1465902223       -0.0168526792       -0.9842042272
 C         -2.0779388561       -0.0375847832       -2.3518364051
 C         -3.2680727338       -0.0485117089       -3.0800625964
 C         -4.4946777103       -0.0385889501       -2.4246368324
 C         -4.5783741592       -0.0177859436       -1.0474183203
 C         -3.3892564153       -0.0066321459       -0.3088551754
 C         -3.1557977314        0.0147119734        1.0886375695
 N         -3.9957698941        0.0317918324        2.1514333299
 C         -3.4727499817        0.0513702745        3.3637369446
 C         -2.1157151122        0.0545049151        3.5900055111
 N         -1.2571227384        0.0370166016        2.5285887456
 C         -1.7623484301        0.0181316865        1.3415643938
 C         -0.1833135819       -1.2543469367       -0.0543628917
 C         -0.8276109537       -2.4845523049       -0.0425199633
 C         -0.1129225963       -3.6652472291       -0.0791168239
 C          1.2735060734       -3.6217652398       -0.1260865476
 C          1.9315076940       -2.4114326411       -0.1431094250
 C          1.2155169706       -1.2091062457       -0.1068753946
 C          3.8659302481       -0.0117346196       -1.5501537573
 C          5.2426751875       -0.0145646506       -1.6876073258
 H          7.1263954051       -0.0102902404       -0.6737550027
 H          6.1174018026        0.0094556841        1.5763286403
 H          3.6547862215        0.0145588852        1.8251348942
 H          3.0046267928        2.3876556001       -0.2399457555
 H          1.8346772496        4.5349562058       -0.2701564136
 H         -0.6389137093        4.6065601442       -0.1956784770
 H         -1.9118101302        2.4971809876       -0.0762572774
 H         -1.1233999023       -0.0454601214       -2.8590850092
 H         -3.2352112993       -0.0648506042       -4.1587057035
 H         -5.4034546639       -0.0474539270       -3.0098031383
 H         -5.5302886082       -0.0100620450       -0.5399277325
 H         -4.1658832493        0.0652145858        4.1921724008
 H         -1.6846379259        0.0705071700        4.5749982097
 H         -1.9062430586       -2.5036876987       -0.0041739537
 H         -0.6287731077       -4.6127046937       -0.0674755114
 H          1.8445337814       -4.5377375392       -0.1489325811
 H          3.0096552312       -2.3881404151       -0.1790148907
 H          3.2223624164       -0.0180179245       -2.4175274000
 H          5.6822240918       -0.0246550913       -2.6735800546
  51
  -80.2055890255000       0.115920339310413      !
 C          5.7213464197       -0.0033821208        1.1612136862
 C          4.6601833678       -0.0890747737        2.0474132738
 C          3.3592765361       -0.0854945711        1.5753090857
 C          3.1243400385        0.0048710516        0.2103601993
 N          1.7772394349        0.0055752490       -0.2480133760
 C          1.1465545146        1.2051306973       -0.5114173912
 C          1.8735759417        2.3954464908       -0.6014835273
 C          1.2381925051        3.5777960197       -0.9169924139
 C         -0.1294709589        3.6003265983       -1.1490327439
 C         -0.8621266385        2.4343757966       -1.0309226667
 C         -0.2415371334        1.2361952631       -0.7123068808
 C         -1.0380965713       -0.0033292540       -0.4339838074
 C         -2.4230524305       -0.0136155320       -1.0291648220
 C         -2.7853130911       -0.0255619769       -2.3512647978
 C         -4.1425914474       -0.0323555634       -2.6743855400
 C         -5.1059567345       -0.0281676396       -1.6709833095
 C         -4.7572623172       -0.0180270569       -0.3358590382
 C         -3.3980136797       -0.0096020492       -0.0027735410
 C         -2.7457059764        0.0073505403        1.2554441719
 N         -3.2152579451        0.0201515181        2.5269684537
 C         -2.3416648514        0.0407006807        3.5170307065
 C         -0.9813761504        0.0467066914        3.3137093419
 N         -0.4908011606        0.0305366508        2.0380537514
 C         -1.3455721838        0.0134298785        1.0699880984
 C         -0.2371084994       -1.2467917209       -0.6798665996
 C         -0.8505153465       -2.4564785790       -0.9681229940
 C         -0.1088211011       -3.6187697689       -1.0665681598
 C          1.2614367606       -3.5795972526       -0.8522504457
 C          1.8891604294       -2.3858823520       -0.5656214164
 C          1.1508077072       -1.2017051470       -0.4847967397
 C          4.1861598015        0.0884062131       -0.6813741830
 C          5.4841131680        0.0852277919       -0.2009396436
 H          6.7352752706       -0.0055727982        1.5316516889
 H          4.8453349777       -0.1595876393        3.1086198877
 H          2.5166448436       -0.1507166636        2.2471754805
 H          2.9372221371        2.3879911127       -0.4210218939
 H          1.8137396012        4.4887020727       -0.9848629151
 H         -0.6233899488        4.5254037495       -1.4026464207
 H         -1.9311432154        2.4460471872       -1.1779588429
 H         -2.0354404384       -0.0279741669       -3.1297626897
 H         -4.4456937664       -0.0393916195       -3.7102315784
 H         -6.1511618671       -0.0334398248       -1.9455066618
 H         -5.5044460667       -0.0146397296        0.4419199015
 H         -2.7445423571        0.0489387475        4.5196501999
 H         -0.2678665278        0.0637692452        4.1185402081
 H         -1.9201297144       -2.4796164727       -1.1091423830
 H         -0.5970870333       -4.5534329250       -1.2948436422
 H          1.8442158287       -4.4865046243       -0.9101226147
 H          2.9557288811       -2.3622783563       -0.4030752433
 H          3.9882042842        0.1556467057       -1.7413889156
 H          6.3108543048        0.1520690449       -0.8920895858
  51
  -80.2054650312000       0.101666016870993      !
 C          6.0232337222        0.0033811572       -0.8184233014
 C          5.1389568104       -0.0121297257       -1.8844435042
 C          3.7746113136       -0.0172834282       -1.6537222015
 C          3.2962282874       -0.0069694882       -0.3500574525
 N          1.8900680885       -0.0043147822       -0.1190562585
 C          1.2274321546        1.2059552671       -0.0656784979
 C          1.9450732651        2.4064702784       -0.1215110504
 C          1.2912397824        3.6185872456       -0.0801457265
 C         -0.0928403660        3.6653064452        0.0105962679
 C         -0.8091149972        2.4861241486        0.0633377117
 C         -0.1689032119        1.2543669266        0.0289866459
 C         -0.9940276111        0.0036216379        0.0890571729
 C         -2.0665587680       -0.0095330635       -0.9829979876
 C         -1.9049917315       -0.0141672325       -2.3428051612
 C         -3.0428845223       -0.0252385619       -3.1502303922
 C         -4.3110892149       -0.0327625762       -2.5791222710
 C         -4.4879113134       -0.0269867511       -1.2105588281
 C         -3.3516547333       -0.0130054154       -0.3929538421
 C         -3.2138111684        0.0027503745        1.0171490886
 N         -4.1238151908        0.0087756468        2.0207193942
 C         -3.6840012531        0.0278830087        3.2654380050
 C         -2.3451117190        0.0428704154        3.5824036061
 N         -1.4170043910        0.0367634990        2.5814583183
 C         -1.8396333247        0.0175669826        1.3627169983
 C         -0.1729676737       -1.2516743289        0.0632250231
 C         -0.8165819683       -2.4801760213        0.1338554579
 C         -0.1035515981       -3.6623608319        0.1166379058
 C          1.2806119803       -3.6224551444        0.0234706750
 C          1.9377866446       -2.4139203009       -0.0543477595
 C          1.2235779011       -1.2102509180       -0.0322232913
 C          4.1808975987        0.0066045921        0.7202206991
 C          5.5441804787        0.0120023651        0.4814272255
 H          7.0870642762        0.0080777208       -1.0009680651
 H          5.5105026749       -0.0194040941       -2.8979921905
 H          3.0737892840       -0.0277659545       -2.4754411005
 H          3.0214801366        2.3804709460       -0.1908790085
 H          1.8637988117        4.5329853031       -0.1183917094
 H         -0.6058079553        4.6139312090        0.0399894212
 H         -1.8864393001        2.5080112669        0.1294816773
 H         -0.9182386880       -0.0103472274       -2.7844082670
 H         -2.9369020408       -0.0294206511       -4.2243012552
 H         -5.1780733077       -0.0440127909       -3.2244455936
 H         -5.4720784976       -0.0321577901       -0.7685896245
 H         -4.4312908088        0.0330156315        4.0453502860
 H         -1.9816162607        0.0596979083        4.5941879297
 H         -1.8938510235       -2.4974484019        0.2023129459
 H         -0.6191328574       -4.6082250005        0.1766318325
 H          1.8501887413       -4.5394564549        0.0126762858
 H          3.0141971341       -2.3922403002       -0.1260093498
 H          3.7933310624        0.0130122022        1.7281272952
 H          6.2329803542        0.0196729812        1.3126428132
  51
  -80.2052751563000       8.316016580347663E-002 !
 C          5.8254809010       -0.0239581745        0.8962231508
 C          5.4923010838        0.1544431058       -0.4366550501
 C          4.1641270243        0.1686922806       -0.8249890273
 C          3.1675427490        0.0072837586        0.1294685369
 N          1.7934859327        0.0124348491       -0.2399616156
 C          1.1518590256        1.2114497864       -0.4796077974
 C          1.8720590080        2.4060897993       -0.5764285142
 C          1.2270902789        3.5899032784       -0.8652164924
 C         -0.1461666529        3.6119411161       -1.0615715224
 C         -0.8715861054        2.4426842471       -0.9351031327
 C         -0.2410157083        1.2418459368       -0.6443641342
 C         -1.0399706193        0.0025261595       -0.3726305512
 C         -2.4055162651       -0.0164142974       -1.0134365678
 C         -2.7221906959       -0.0389560727       -2.3469046789
 C         -4.0679481525       -0.0586720833       -2.7155611282
 C         -5.0643632832       -0.0564653112       -1.7452341268
 C         -4.7612966249       -0.0327581020       -0.3990550196
 C         -3.4141972312       -0.0109642121       -0.0202568370
 C         -2.8042026597        0.0161738656        1.2585759654
 N         -3.3163445967        0.0326910602        2.5136235702
 C         -2.4775030899        0.0564381589        3.5326550929
 C         -1.1107185458        0.0659166986        3.3753250032
 N         -0.5781008472        0.0503070396        2.1171220930
 C         -1.3977309905        0.0279691292        1.1200218062
 C         -0.2369476093       -1.2447097145       -0.5904238062
 C         -0.8585179818       -2.4607445634       -0.8326626641
 C         -0.1227839724       -3.6275829939       -0.9171243039
 C          1.2524511842       -3.5853862455       -0.7391644447
 C          1.8885395471       -2.3854532458       -0.5014988184
 C          1.1548216552       -1.1974180577       -0.4291054119
 C          3.4991958862       -0.1730506214        1.4654500532
 C          4.8298301440       -0.1887591343        1.8450291387
 H          6.8627482832       -0.0359066830        1.1947476734
 H          6.2676472410        0.2806552948       -1.1772934878
 H          3.8920672352        0.3020211086       -1.8618580085
 H          2.9392922068        2.4021637941       -0.4195406810
 H          1.7994168985        4.5024516046       -0.9379254953
 H         -0.6487166674        4.5382002740       -1.2929612488
 H         -1.9440701913        2.4526902693       -1.0545739420
 H         -1.9463989369       -0.0423695264       -3.0994884114
 H         -4.3359298257       -0.0760703291       -3.7608822511
 H         -6.0998792171       -0.0733820406       -2.0546630315
 H         -5.5346334208       -0.0315797973        0.3530170835
 H         -2.9135723431        0.0688501622        4.5209309720
 H         -0.4246030962        0.0862592901        4.2033337390
 H         -1.9310483022       -2.4845053480       -0.9489615044
 H         -0.6187229101       -4.5665839313       -1.1077429081
 H          1.8332113348       -4.4940846082       -0.7887036344
 H          2.9593029528       -2.3609388953       -0.3706906860
 H          2.7083037178       -0.2981733692        2.1899939975
 H          5.0890986477       -0.3288568852        2.8836168412
