  57
        -92.08356346
 C         -6.9191040897        1.7110696704        1.6156872048
 C         -6.0391066790        2.7105441466        1.2339737754
 C         -4.7506831810        2.3900106710        0.8511526371
 C         -4.3334202440        1.0613434328        0.8305576949
 C         -2.9588265398        0.7453181069        0.4259482935
 N         -2.0181029188        1.5546015672        0.8531494118
 C         -0.7340044537        1.2397919723        0.6110344575
 C          0.3022265039        2.0917230220        1.0436669547
 C          1.6038761107        1.7203216587        0.8701508749
 C          1.9326731192        0.4898407456        0.2559143061
 N          3.2899498366        0.1387487061        0.1200443087
 C          3.8044099579       -1.0038449224        0.7404140480
 C          3.0219996892       -1.8489757577        1.5171875235
 C          3.5697420304       -2.9692678291        2.1232949744
 C          4.9099316392       -3.2609647264        1.9714041537
 C          5.7118670757       -2.4109966042        1.2247575762
 C          5.1715702006       -1.2898148794        0.6225640923
 O          6.0398994681       -0.4796287227       -0.0658601420
 C          5.5166346544        0.6286056653       -0.6825875692
 C          6.3945674559        1.4210752800       -1.3983962317
 C          5.9342483140        2.5399089622       -2.0769122827
 C          4.5882834649        2.8435407203       -2.0524181168
 C          3.7037482029        2.0521123821       -1.3355241775
 C          4.1546372795        0.9514104444       -0.6171978690
 C          0.9411887193       -0.3498890124       -0.1937925652
 C         -0.4059069343        0.0151844267       -0.0333846621
 N         -1.3809443672       -0.7628826479       -0.5422913559
 C         -2.6295951813       -0.4007891912       -0.3719155803
 C         -3.6486321368       -1.2015050098       -1.0611237483
 C         -4.7267684547       -0.5970021767       -1.7039304218
 C         -5.6655035857       -1.3712194791       -2.3586560665
 C         -5.5419076648       -2.7510995452       -2.3787909965
 C         -4.4622115160       -3.3564221307       -1.7568759120
 C         -3.5154566288       -2.5868229219       -1.1079115832
 C         -5.2170932264        0.0622732171        1.2332095222
 C         -6.5015498950        0.3899356655        1.6235749225
 H         -7.9262389861        1.9612631848        1.9145255853
 H         -6.3577750574        3.7426326022        1.2391350919
 H         -4.0523950991        3.1586324199        0.5568622172
 H          0.0364847776        3.0186877108        1.5271023437
 H          2.4072479105        2.3537851987        1.2166988496
 H          1.9763379720       -1.6274244831        1.6586843434
 H          2.9354791088       -3.6082172565        2.7182630683
 H          5.3401311187       -4.1335066103        2.4368713854
 H          6.7670688121       -2.5962002055        1.1029460346
 H          7.4360645889        1.1426959875       -1.4148995757
 H          6.6273343857        3.1556248604       -2.6276832351
 H          4.2107924787        3.6968552595       -2.5944607645
 H          2.6516752464        2.2899775056       -1.3412116526
 H          1.1728259090       -1.2826316649       -0.6840440227
 H         -4.8189060432        0.4790973317       -1.7050798292
 H         -6.4961810712       -0.8954025581       -2.8586728898
 H         -6.2822855351       -3.3524022324       -2.8851874569
 H         -4.3581438415       -4.4311800781       -1.7793048154
 H         -2.6657545726       -3.0446595738       -0.6248633323
 H         -4.8925341101       -0.9677424487        1.2554245364
 H         -7.1801076637       -0.3894963372        1.9373446540
  57
        -92.08351561
 C         -6.8745154780        2.0051881313        1.3780603261
 C         -6.3805842040        1.9855669367        0.0836027192
 C         -5.1129200199        1.4986146385       -0.1712353512
 C         -4.3227660267        1.0253688673        0.8745952091
 C         -2.9661920782        0.5239332367        0.6313199872
 N         -2.0455748589        0.8530686687        1.5061988424
 C         -0.7636189575        0.5451993946        1.2455160251
 C          0.2495830625        0.8601424243        2.1731515826
 C          1.5576514444        0.6458116985        1.8478841756
 C          1.9140590102        0.1122992198        0.5882334364
 N          3.2798959592       -0.0521346848        0.2809071981
 C          4.0732832102       -0.9083111293        1.0468259008
 C          3.5387537852       -1.7186987833        2.0407349360
 C          4.3523784940       -2.5604901895        2.7839070014
 C          5.7089308135       -2.6167845738        2.5368850716
 C          6.2526895621       -1.8393704879        1.5246770544
 C          5.4460874874       -0.9985031128        0.7809514392
 O          6.0489930465       -0.2817806440       -0.2220912737
 C          5.2502507464        0.5324912738       -0.9863178085
 C          5.8698149576        1.2398958396       -1.9997500067
 C          5.1394169150        2.1103561915       -2.7950390140
 C          3.7901073141        2.2758849928       -2.5582295532
 C          3.1628897627        1.5656820379       -1.5458405883
 C          3.8744851500        0.6711801842       -0.7565840924
 C          0.9442618507       -0.2325531634       -0.3227815147
 C         -0.4100689417       -0.0409985443       -0.0016645633
 N         -1.3724670057       -0.4724770381       -0.8392561909
 C         -2.6266618541       -0.2607071862       -0.5220376031
 C         -3.6435775148       -0.8919187498       -1.3703736210
 C         -4.7798348882       -1.4756910937       -0.8136717490
 C         -5.7187938771       -2.0789041809       -1.6282313894
 C         -5.5382110934       -2.1051531441       -3.0017494538
 C         -4.4017740790       -1.5423518196       -3.5592860256
 C         -3.4543732663       -0.9459551242       -2.7490297722
 C         -4.8150397623        1.0725120624        2.1766845215
 C         -6.0869307262        1.5526063140        2.4240385990
 H         -7.8687946769        2.3797987609        1.5711690642
 H         -6.9858725804        2.3533165956       -0.7317958214
 H         -4.7265258535        1.5015959373       -1.1799466122
 H         -0.0362376097        1.2915709890        3.1196058111
 H          2.3462093276        0.9012319744        2.5405059340
 H          2.4771259831       -1.6972888767        2.2308097321
 H          3.9114394080       -3.1745952737        3.5539211610
 H          6.3466409860       -3.2673972698        3.1140171516
 H          7.3051333236       -1.8744572678        1.2929279820
 H          6.9289794295        1.0999823729       -2.1452928324
 H          5.6312554781        2.6571138206       -3.5838103353
 H          3.2105238936        2.9619502493       -3.1564995984
 H          2.1109546404        1.7171322482       -1.3634237857
 H          1.1984811935       -0.6635435800       -1.2786511995
 H         -4.9176912250       -1.4715274746        0.2576225365
 H         -6.5951046811       -2.5325214588       -1.1890505870
 H         -6.2792394247       -2.5698647127       -3.6351509812
 H         -4.2535536459       -1.5709606474       -4.6287421151
 H         -2.5618979919       -0.5080269647       -3.1692672743
 H         -4.1878945953        0.7226151321        2.9823384831
 H         -6.4654288904        1.5767521756        3.4353520063
  57
        -92.08348278
 C         -6.9330621023        1.7704371271        1.5109032579
 C         -6.0452361097        2.7546359838        1.1080821642
 C         -4.7507715680        2.4194867303        0.7593844525
 C         -4.3353282195        1.0906583155        0.7941801471
 C         -2.9562124304        0.7571017623        0.4182568349
 N         -2.0149537872        1.5641249786        0.8490203377
 C         -0.7308086311        1.2404959396        0.6172563476
 C          0.3074737832        2.0817307002        1.0659894377
 C          1.6084822169        1.7082723818        0.8922962952
 C          1.9363267371        0.4887524618        0.2556954674
 N          3.2924935419        0.1384206952        0.1133044162
 C          3.8027116059       -1.0272432370        0.6941656230
 C          3.0153303032       -1.9037401372        1.4301436054
 C          3.5591711363       -3.0469237219        1.9958460356
 C          4.9008754895       -3.3311288125        1.8444929775
 C          5.7080992011       -2.4504453147        1.1403767023
 C          5.1715929651       -1.3066052380        0.5787484193
 O          6.0460608413       -0.4680874670       -0.0662760787
 C          5.5265645250        0.6589634199       -0.6506902880
 C          6.4102327179        1.4770755689       -1.3298124566
 C          5.9544492933        2.6167797129       -1.9757138208
 C          4.6071565389        2.9150806370       -1.9575213330
 C          3.7170492080        2.0978128623       -1.2775017518
 C          4.1631228426        0.9761562625       -0.5890112609
 C          0.9425069359       -0.3411837001       -0.2074534146
 C         -0.4039714018        0.0206902085       -0.0362225299
 N         -1.3797394311       -0.7629939734       -0.5360112567
 C         -2.6278387200       -0.4023122221       -0.3592941960
 C         -3.6507369653       -1.2275385184       -1.0145014888
 C         -4.7243718942       -0.6485994259       -1.6870518219
 C         -5.6679125096       -1.4485902320       -2.3030480774
 C         -5.5545832234       -2.8286336235       -2.2522824390
 C         -4.4796163956       -3.4093332371       -1.5996270600
 C         -3.5269378214       -2.6142242887       -0.9911918357
 C         -5.2266503659        0.1079216315        1.2191412323
 C         -6.5171694026        0.4503526875        1.5754364438
 H         -7.9453174833        2.0320906608        1.7813176016
 H         -6.3634479176        3.7859963097        1.0674604190
 H         -4.0472108004        3.1765817053        0.4481985232
 H          0.0436102211        3.0024097842        1.5623019987
 H          2.4119696928        2.3329664914        1.2541904694
 H          1.9685389171       -1.6892492289        1.5734014461
 H          2.9198894032       -3.7102136375        2.5578383304
 H          5.3280386199       -4.2222184781        2.2761914142
 H          6.7646313248       -2.6292739845        1.0205825640
 H          7.4525984911        1.2017893375       -1.3444569204
 H          6.6519506741        3.2523142806       -2.4978153430
 H          4.2331014533        3.7845011029       -2.4758423795
 H          2.6643211156        2.3322945753       -1.2888606054
 H          1.1711917387       -1.2656874142       -0.7143722199
 H         -4.8102083219        0.4268841393       -1.7404311803
 H         -6.4961416406       -0.9930338634       -2.8254070275
 H         -6.2994141823       -3.4497206323       -2.7272933687
 H         -4.3826129154       -4.4845816175       -1.5673402192
 H         -2.6809854016       -3.0530766072       -0.4846917458
 H         -4.9033999468       -0.9205322434        1.2860159060
 H         -7.2018810384       -0.3170014979        1.9054452356
  57
        -92.08339503
 C         -6.8763016732        1.6952667487        1.7213240313
 C         -6.0398791843        2.6988933192        1.2604947696
 C         -4.7677019538        2.3915457857        0.8170060291
 C         -4.3253837556        1.0711012944        0.8128801684
 C         -2.9600962691        0.7659835869        0.3692379842
 N         -2.0183449302        1.5909683486        0.7634174797
 C         -0.7363979126        1.2775495539        0.5095326432
 C          0.3027181618        2.1318302955        0.9309084250
 C          1.6028692340        1.7498035453        0.7716987629
 C          1.9291491582        0.5111049030        0.1716601049
 N          3.2831963390        0.1415880015        0.0667729099
 C          3.7660516153       -1.0129855738        0.6932653174
 C          2.9469874757       -1.8766334414        1.4099744639
 C          3.4642363790       -3.0099570263        2.0184355845
 C          4.8109596221       -3.2975979182        1.9307779683
 C          5.6488676824       -2.4286145014        1.2487937159
 C          5.1384835238       -1.2942506227        0.6446339254
 O          6.0426649551       -0.4662938813        0.0274969948
 C          5.5516102380        0.6505846880       -0.5991270771
 C          6.4667661893        1.4596288617       -1.2468961473
 C          6.0417096185        2.5873123804       -1.9333453035
 C          4.6944044604        2.8815828435       -1.9884927969
 C          3.7730757187        2.0739550458       -1.3393685397
 C          4.1866405904        0.9665325801       -0.6086594489
 C          0.9345949868       -0.3222774658       -0.2841556808
 C         -0.4114214312        0.0462540344       -0.1233311731
 N         -1.3893910092       -0.7444962543       -0.6063542483
 C         -2.6376817049       -0.3917556693       -0.4133757843
 C         -3.6638476225       -1.2221869369       -1.0550744374
 C         -4.7712345487       -0.6506706121       -1.6776045264
 C         -5.7135053110       -1.4555294418       -2.2893241346
 C         -5.5659361542       -2.8332919222       -2.2833649154
 C         -4.4591801604       -3.4062729955       -1.6785963311
 C         -3.5079296763       -2.6060893299       -1.0751168092
 C         -5.1670509037        0.0672697182        1.2871383983
 C         -6.4337731514        0.3823966188        1.7405933755
 H         -7.8691608470        1.9358625162        2.0714758578
 H         -6.3792503438        3.7242907901        1.2524402699
 H         -4.1019549000        3.1648649965        0.4650700578
 H          0.0399207461        3.0649122723        1.4040294701
 H          2.4068002065        2.3804144874        1.1220690822
 H          1.8954016559       -1.6597374033        1.5056679433
 H          2.8001814826       -3.6630326915        2.5633668787
 H          5.2172661717       -4.1816516432        2.3958773666
 H          6.7097338730       -2.6084317813        1.1796382300
 H          7.5089570576        1.1864150229       -1.2048528251
 H          6.7631558044        3.2159039194       -2.4307351471
 H          4.3450389465        3.7400225286       -2.5411171999
 H          2.7215785862        2.3045841791       -1.4074009146
 H          1.1619929705       -1.2576270760       -0.7713309403
 H         -4.8838751870        0.4234630583       -1.6967815360
 H         -6.5678029418       -1.0057122268       -2.7733573486
 H         -6.3095693866       -3.4584914769       -2.7549109647
 H         -4.3369939580       -4.4794972522       -1.6799880696
 H         -2.6374724305       -3.0383653667       -0.6056450102
 H         -4.8212069805       -0.9556232245        1.3178439152
 H         -7.0797226699       -0.4006507122        2.1097948353
  57
        -92.08338655
 C         -6.9337904200        0.7032486368        2.1467295590
 C         -6.0767073447        1.7808877542        2.3002425798
 C         -4.7893646315        1.7191701862        1.8020697853
 C         -4.3494571581        0.5809533809        1.1299993794
 C         -2.9743429294        0.5251977121        0.6248163652
 N         -2.0469409972        1.0842354826        1.3658778809
 C         -0.7570168512        0.9123394982        1.0329574143
 C          0.2664111225        1.5216043703        1.7865325377
 C          1.5720169417        1.2336047191        1.5131829240
 C          1.9179387866        0.3221260497        0.4883527951
 N          3.2788930015        0.0370964969        0.2651797747
 C          4.0533951983       -0.5164160149        1.2882919945
 C          3.5072290426       -0.8994405203        2.5074232973
 C          4.3042056910       -1.4389029016        3.5056758499
 C          5.6563033601       -1.6204686186        3.2977716488
 C          6.2098267103       -1.2819270058        2.0718183485
 C          5.4192982179       -0.7438784486        1.0733406343
 O          6.0315793610       -0.4671075688       -0.1226622111
 C          5.2488545567        0.0343218667       -1.1327779386
 C          5.8768322115        0.2858325531       -2.3386216084
 C          5.1669390717        0.8288972744       -3.3988328575
 C          3.8313764374        1.1346100292       -3.2342957728
 C          3.1959165910        0.8800982569       -2.0284911402
 C          3.8835753736        0.3052424585       -0.9670498450
 C          0.9397547628       -0.2609468021       -0.2822256736
 C         -0.4091513182        0.0538385595       -0.0471857713
 N         -1.3680565422       -0.4094462659       -0.8707262854
 C         -2.6217405050       -0.1405486214       -0.5977150424
 C         -3.6145837178       -0.5057906907       -1.6136395790
 C         -4.6851149851        0.3371364098       -1.9060476823
 C         -5.5958404792       -0.0134260536       -2.8841320659
 C         -5.4520720623       -1.2040752481       -3.5782484415
 C         -4.3802198971       -2.0377212817       -3.3039406398
 C         -3.4610954701       -1.6884983330       -2.3330089533
 C         -5.2106069419       -0.5065260508        0.9943924688
 C         -6.4942691478       -0.4414666650        1.5013670333
 H         -7.9399972058        0.7514156687        2.5359670923
 H         -6.4131421603        2.6701254783        2.8127249428
 H         -4.1088657802        2.5486796300        1.9187977849
 H         -0.0105304941        2.2027940356        2.5757906331
 H          2.3669525335        1.6992713722        2.0771497923
 H          2.4488442036       -0.7822532405        2.6782022425
 H          3.8532046346       -1.7190121157        4.4451339659
 H          6.2815905577       -2.0349487348        4.0724528684
 H          7.2576839480       -1.4325232180        1.8673378057
 H          6.9264694410        0.0543724610       -2.4241970936
 H          5.6642002090        1.0179073847       -4.3369024425
 H          3.2683347003        1.5765178034       -4.0418761077
 H          2.1559892028        1.1399566323       -1.9129789059
 H          1.1830919619       -0.9506539824       -1.0754041389
 H         -4.7927777405        1.2737802386       -1.3789373132
 H         -6.4210672489        0.6465892135       -3.1075539554
 H         -6.1702523090       -1.4769530962       -4.3372017745
 H         -4.2598365632       -2.9611008424       -3.8512482237
 H         -2.6179911740       -2.3252169613       -2.1125764387
 H         -4.8679660454       -1.4081216580        0.5081810931
 H         -7.1547004407       -1.2894164209        1.3945858289
  57
        -92.08329299
 C         -6.9767815060        1.1632136249        1.8767609931
 C         -6.5893209782       -0.0828763397        1.4109611155
 C         -5.2877950514       -0.3001005995        1.0002820471
 C         -4.3569690228        0.7346583003        1.0554886238
 C         -2.9650040243        0.5348368271        0.6330185652
 N         -2.0371701113        1.0408337557        1.4104631608
 C         -0.7460337793        0.8108070958        1.1111690545
 C          0.2763538510        1.3339368235        1.9283116383
 C          1.5818390705        1.0505609561        1.6476875034
 C          1.9261814232        0.2433341464        0.5400750387
 N          3.2892729610       -0.0024884055        0.2730651103
 C          4.0660168492       -0.7153452107        1.1873699893
 C          3.5206747298       -1.2932417322        2.3267804648
 C          4.3172771250       -2.0032646378        3.2125421336
 C          5.6663634741       -2.1579347113        2.9674492941
 C          6.2204437861       -1.6112008141        1.8189207048
 C          5.4313844016       -0.9018818119        0.9331814295
 O          6.0430367370       -0.4115763079       -0.1935191183
 C          5.2614069542        0.2731130459       -1.0914086374
 C          5.8902208275        0.7619977539       -2.2212431016
 C          5.1757382500        1.4895644457       -3.1616531333
 C          3.8332659204        1.7326771150       -2.9555205909
 C          3.1967163092        1.2421985556       -1.8254005534
 C          3.8926883615        0.4932797002       -0.8853350942
 C          0.9495809641       -0.2768207551       -0.2746440343
 C         -0.4010424207        0.0059848698       -0.0086692378
 N         -1.3611037922       -0.4603058802       -0.8313656124
 C         -2.6135512868       -0.1897420464       -0.5540325747
 C         -3.6150056150       -0.6457345026       -1.5267729720
 C         -4.6633629989        0.1783473165       -1.9289935314
 C         -5.5869933714       -0.2767610148       -2.8506290283
 C         -5.4782126554       -1.5536616011       -3.3771528192
 C         -4.4264072085       -2.3702531469       -2.9955972918
 C         -3.4937677631       -1.9168622483       -2.0820672768
 C         -4.7451276611        1.9763965733        1.5520453027
 C         -6.0504845483        2.1903968252        1.9520211127
 H         -7.9972878488        1.3304466834        2.1879470484
 H         -7.3052544055       -0.8903340485        1.3678514569
 H         -4.9876705001       -1.2772402227        0.6512329999
 H         -0.0029795297        1.9523280276        2.7668452813
 H          2.3766299731        1.4481191828        2.2617600928
 H          2.4640167599       -1.1936553668        2.5200539245
 H          3.8685875725       -2.4376273021        4.0925875751
 H          6.2905521808       -2.7081425064        3.6535458300
 H          7.2674852345       -1.7282107581        1.5897720751
 H          6.9435071004        0.5665629085       -2.3437989965
 H          5.6747859031        1.8658843677       -4.0405698152
 H          3.2662450289        2.3091869207       -3.6700470668
 H          2.1501100568        1.4512907686       -1.6712056812
 H          1.1956249024       -0.8936166558       -1.1249895469
 H         -4.7445443055        1.1797236910       -1.5325633303
 H         -6.3969746707        0.3678610016       -3.1588583763
 H         -6.2076536959       -1.9079333100       -4.0903033260
 H         -4.3324622879       -3.3620743316       -3.4127223602
 H         -2.6659536510       -2.5404471599       -1.7800759496
 H         -4.0119433852        2.7665262910        1.6092555253
 H         -6.3464703082        3.1595917914        2.3257054625
  57
        -92.08323682
 C         -6.8319619996        1.5943316169        1.8631873781
 C         -6.0150015018        2.6245781496        1.4269262554
 C         -4.7550988346        2.3477396027        0.9314412511
 C         -4.3046838913        1.0322566043        0.8522734486
 C         -2.9545067037        0.7586090727        0.3479939002
 N         -2.0095222972        1.5907903965        0.7183560513
 C         -0.7323130888        1.2911666181        0.4294277787
 C          0.3099582847        2.1542377312        0.8243294129
 C          1.6084082349        1.7678123863        0.6632415381
 C          1.9289315127        0.5153947457        0.0890096423
 N          3.2806593208        0.1295009438        0.0128135861
 C          3.7459633534       -0.9975954167        0.7006075458
 C          2.9031448123       -1.8535955897        1.3986297533
 C          3.4042099251       -2.9587186257        2.0694363529
 C          4.7579523058       -3.2258101731        2.0632957885
 C          5.6175846263       -2.3645434086        1.3987742033
 C          5.1230662127       -1.2581660057        0.7325168278
 O          6.0471675598       -0.4354634181        0.1379763194
 C          5.5738622091        0.6494803271       -0.5548098104
 C          6.5089688855        1.4497407992       -1.1847306533
 C          6.1025142386        2.5445335045       -1.9329518233
 C          4.7555410125        2.8149516250       -2.0665163704
 C          3.8143119037        2.0168593182       -1.4344011918
 C          4.2070621421        0.9431862899       -0.6443587650
 C          0.9314544375       -0.3176675559       -0.3611690154
 C         -0.4132271837        0.0576067220       -0.2029102783
 N         -1.3970761940       -0.7272252794       -0.6828938968
 C         -2.6433798965       -0.3806181777       -0.4675421480
 C         -3.6815543426       -1.1952695605       -1.1086559398
 C         -4.8212701364       -0.6128209927       -1.6596793332
 C         -5.7869895158       -1.4044860867       -2.2512350161
 C         -5.6289386464       -2.7802473303       -2.3008884406
 C         -4.4868731040       -3.3628458011       -1.7761491723
 C         -3.5141291721       -2.5756920724       -1.1898885559
 C         -5.1242892751        0.0017038737        1.3084519475
 C         -6.3797211223        0.2856718723        1.8107542300
 H         -7.8164452770        1.8105300236        2.2508373999
 H         -6.3608169384        3.6466084767        1.4766241437
 H         -4.1052721472        3.1409024105        0.5944570600
 H          0.0514749134        3.0944395654        1.2855528570
 H          2.4154246874        2.4034151078        0.9971566963
 H          1.8447636264       -1.6521980189        1.4320588627
 H          2.7217013255       -3.6057959718        2.5985963250
 H          5.1522801824       -4.0875068624        2.5780621883
 H          6.6833369319       -2.5279396362        1.3922204976
 H          7.5516892702        1.1963413325       -1.0792832575
 H          6.8391709925        3.1666610841       -2.4160555027
 H          4.4228100255        3.6475691506       -2.6668927242
 H          2.7638266658        2.2280160047       -1.5596454701
 H          1.1559667603       -1.2591974235       -0.8376664543
 H         -4.9429387820        0.4601504417       -1.6371715681
 H         -6.6679952329       -0.9458863506       -2.6755605665
 H         -6.3916138087       -3.3957563279       -2.7546176167
 H         -4.3552738795       -4.4338328067       -1.8240699503
 H         -2.6189739760       -3.0155901728       -0.7774987372
 H         -4.7701973665       -1.0184724869        1.2861984128
 H         -7.0084674595       -0.5183591643        2.1638400606
  57
        -92.08210200
 C         -6.9926564500        0.9177694511        1.9598419815
 C         -6.6060182056        1.3922318205        0.7167388014
 C         -5.2986812737        1.2494739174        0.2910953120
 C         -4.3620251314        0.6311079551        1.1147462550
 C         -2.9657023091        0.4423748985        0.6941947020
 N         -2.0416564924        0.8099869581        1.5500404535
 C         -0.7497716964        0.6538185451        1.2099151848
 C          0.2707568305        1.0625818102        2.0921543910
 C          1.5782478484        0.8763935249        1.7507084354
 C          1.9326658983        0.2532802006        0.5303124776
 N          3.2946649614        0.0344943743        0.2565464491
 C          4.0750356232       -0.6974134448        1.1588951152
 C          3.5307553494       -1.3319899458        2.2695630765
 C          4.3357090021       -2.0255761948        3.1600353309
 C          5.6962512624       -2.1162315653        2.9470989562
 C          6.2478241625       -1.5375437177        1.8142182978
 C          5.4480845887       -0.8459373190        0.9227970648
 O          6.0602320118       -0.3405554787       -0.1951855915
 C          5.2680061508        0.3025324137       -1.1126798152
 C          5.8931732799        0.7541557903       -2.2605733842
 C          5.1792311687        1.4604019585       -3.2160751490
 C          3.8436274566        1.7315346263       -2.9987500641
 C          3.2106435304        1.2733802204       -1.8535020290
 C          3.8992679556        0.5248082077       -0.9067471637
 C          0.9549329201       -0.1312368724       -0.3578960121
 C         -0.3974719986        0.0847761881       -0.0434923828
 N         -1.3567607297       -0.2782856339       -0.9190412667
 C         -2.6124529818       -0.1178569982       -0.5764822176
 C         -3.6216892541       -0.5373674823       -1.5597128872
 C         -3.4555222708       -0.1704802105       -2.8925814276
 C         -4.4002433236       -0.5248784067       -3.8370445412
 C         -5.5117111945       -1.2621957582       -3.4634889945
 C         -5.6655509503       -1.6585324543       -2.1448070404
 C         -4.7279091583       -1.3001970335       -1.1945160598
 C         -4.7485455187        0.1861060157        2.3759071249
 C         -6.0599359438        0.3203704207        2.7912498946
 H         -8.0183266496        1.0193792204        2.2822329621
 H         -7.3280686117        1.8741950271        0.0742756836
 H         -4.9993251148        1.6287524397       -0.6749863115
 H         -0.0123430924        1.5258579910        3.0242157061
 H          2.3688289407        1.2048455243        2.4093320214
 H          2.4670830251       -1.2895561959        2.4417331445
 H          3.8844019044       -2.4959061303        4.0199992336
 H          6.3283943298       -2.6460324999        3.6418106894
 H          7.3014422479       -1.6150967099        1.5988955727
 H          6.9446644809        0.5482385771       -2.3812861570
 H          5.6732584914        1.8034976959       -4.1111331986
 H          3.2785699489        2.3033892420       -3.7185114570
 H          2.1717752426        1.5120130646       -1.6933500284
 H          1.1966207491       -0.6149264259       -1.2913227264
 H         -2.5838979326        0.4024591884       -3.1709418059
 H         -4.2697638256       -0.2260441963       -4.8668143083
 H         -6.2531476666       -1.5347497498       -4.1998616836
 H         -6.5222158861       -2.2484992370       -1.8541093178
 H         -4.8470410595       -1.6229397139       -0.1708128639
 H         -4.0114328520       -0.2764227184        3.0150103783
 H         -6.3552491355       -0.0424513997        3.7648309690
