  57
  -91.7482168033000       0.183456373418689      !
 C         -6.9342320669        2.1766679058       -0.8540025851
 C         -6.5187229661        1.6698914586        0.3668025616
 C         -5.2275821333        1.2033208885        0.5251713322
 C         -4.3354371155        1.2430689342       -0.5438039727
 C         -2.9551395384        0.7614857294       -0.4065729848
 N         -2.0165224602        1.5118134999       -0.9331990175
 C         -0.7307499449        1.1566611623       -0.7594805382
 C          0.3032303618        1.9432439842       -1.3061389053
 C          1.6061218547        1.6050573634       -1.0793195654
 C          1.9358110691        0.4680010699       -0.3076977945
 N          3.2953389419        0.1419082890       -0.1203771321
 C          4.1351492220        1.0095008486        0.5792307212
 C          3.6589036784        2.1573768343        1.1998671300
 C          4.5172760994        2.9957243566        1.8953179587
 C          5.8602318106        2.6939881284        1.9925420051
 C          6.3460210952        1.5360045651        1.4025219162
 C          5.4952077468        0.6973646871        0.7074808929
 O          6.0415176345       -0.4422817922        0.1720151144
 C          5.1985692785       -1.2938697669       -0.4989440554
 C          5.7619412052       -2.4373592753       -1.0337195951
 C          4.9826758973       -3.3331996879       -1.7509540111
 C          3.6413700034       -3.0687995579       -1.9375482797
 C          3.0703467231       -1.9247503818       -1.4008734994
 C          3.8319308262       -1.0289640811       -0.6615926498
 C          0.9475316996       -0.3179196927        0.2342516395
 C         -0.4010002332        0.0074158144        0.0094771407
 N         -1.3751445637       -0.7860065863        0.4968147474
 C         -2.6247252778       -0.4534849824        0.2806653766
 C         -3.6466756485       -1.3949383358        0.7564245545
 C         -4.7411558989       -1.7378364496       -0.0338154675
 C         -5.6833644092       -2.6313134417        0.4390170981
 C         -5.5473898466       -3.1883119011        1.7002860181
 C         -4.4505906184       -2.8660385944        2.4825087741
 C         -3.4996501734       -1.9810531146        2.0108842403
 C         -4.7502300139        1.7805079671       -1.7596393810
 C         -6.0455068955        2.2364710986       -1.9148449929
 H         -7.9469165711        2.5316240055       -0.9753002140
 H         -7.2044896647        1.6384301240        1.2005538950
 H         -4.9047996120        0.8222705875        1.4829416277
 H          0.0347419631        2.8049619282       -1.8968415835
 H          2.4094143333        2.1952040891       -1.4955866714
 H          2.6079228785        2.3945639029        1.1452796537
 H          4.1215399446        3.8836519162        2.3637736796
 H          6.5322644652        3.3430689903        2.5311835943
 H          7.3866102285        1.2629969957        1.4741971478
 H          6.8160797979       -2.6057687470       -0.8818750165
 H          5.4309521360       -4.2232153438       -2.1633619688
 H          3.0242602163       -3.7480059149       -2.5052441203
 H          2.0236397500       -1.7247142179       -1.5660107309
 H          1.1822424493       -1.1900801764        0.8244289418
 H         -4.8443380599       -1.3176547871       -1.0234127413
 H         -6.5291805342       -2.8935461847       -0.1794015718
 H         -6.2911028922       -3.8791313202        2.0688450454
 H         -4.3358683640       -3.3072022458        3.4616623219
 H         -2.6370844149       -1.7253218331        2.6074703044
 H         -4.0460063747        1.8250074313       -2.5764784266
 H         -6.3628549757        2.6418012111       -2.8643628399
  57
  -91.7481390298000       0.168962597809317      !
 C         -6.9081314924        1.9250106043       -1.4086374347
 C         -6.0831076262        1.5295642896       -2.4488334000
 C         -4.7999780070        1.0891861107       -2.1862038454
 C         -4.3335089841        1.0242542824       -0.8754484722
 C         -2.9653983341        0.5587766613       -0.6211013483
 N         -2.0396845370        0.9650388385       -1.4580042429
 C         -0.7553858548        0.6655163802       -1.1982027954
 C          0.2642803864        1.0742967798       -2.0813286811
 C          1.5710436950        0.8414234053       -1.7643457979
 C          1.9213655553        0.1890196046       -0.5597208821
 N          3.2844214741       -0.0080338967       -0.2644670187
 C          3.8668298907        0.5673735826        0.8690031833
 C          3.1493736274        1.3568244041        1.7588418767
 C          3.7635834917        1.9171261847        2.8684591066
 C          5.1066632327        1.7059886749        3.1047298198
 C          5.8446515075        0.9459587969        2.2098805277
 C          5.2380003352        0.3892894800        1.0991601344
 O          6.0461580979       -0.3160488343        0.2425948160
 C          5.4564171440       -0.8881853820       -0.8561351880
 C          6.2737289666       -1.6216326180       -1.6959046040
 C          5.7439261087       -2.2577775639       -2.8088714012
 C          4.3894587321       -2.1734289895       -3.0593050804
 C          3.5655589744       -1.4386132067       -2.2202977389
 C          4.0868690098       -0.7619442816       -1.1243080431
 C          0.9452186084       -0.2383427635        0.3091417056
 C         -0.4072103941       -0.0168889527       -0.0000022968
 N         -1.3716889082       -0.5027571484        0.8054700388
 C         -2.6253078769       -0.2753233859        0.4956607478
 C         -3.6401649946       -0.9400341550        1.3219867499
 C         -4.7657570526       -1.5266788984        0.7476240782
 C         -5.7000495207       -2.1595822650        1.5450152369
 C         -5.5248195940       -2.2134441403        2.9183847193
 C         -4.3984860223       -1.6477490591        3.4931014661
 C         -3.4562436841       -1.0210166630        2.6999001434
 C         -5.1613690739        1.4407724920        0.1648918484
 C         -6.4405040597        1.8886784895       -0.1048685357
 H         -7.9111309270        2.2688330375       -1.6135767925
 H         -6.4404464333        1.5689597919       -3.4674303400
 H         -4.1440295517        0.7834784646       -2.9869952967
 H         -0.0168089975        1.5871818025       -2.9877114295
 H          2.3630556661        1.1689033836       -2.4218043177
 H          2.1026194966        1.5443980902        1.5809749429
 H          3.1788066385        2.5233706980        3.5430230245
 H          5.5883578478        2.1356439697        3.9686900623
 H          6.9003424565        0.7784305126        2.3514433207
 H          7.3235615417       -1.6853607707       -1.4586832818
 H          6.3901134579       -2.8226946685       -3.4616604841
 H          3.9580191780       -2.6820805647       -3.9075909199
 H          2.5058127328       -1.3974793231       -2.4170604823
 H          1.1922003862       -0.7568012071        1.2224937618
 H         -4.8988513598       -1.5016783194       -0.3238896571
 H         -6.5678669842       -2.6161126634        1.0923382040
 H         -6.2616442651       -2.7024447690        3.5381665169
 H         -4.2544874342       -1.6967506218        4.5623540254
 H         -2.5708051928       -0.5818187133        3.1335445092
 H         -4.7971176097        1.4285346840        1.1817180408
 H         -7.0755504937        2.2128351441        0.7063310863
  57
  -91.7481771252000       0.175913031104208      !
 C         -6.8969859234        1.5563224171       -1.7855639076
 C         -6.4544691230        0.2451527286       -1.7149486113
 C         -5.1774606844       -0.0362478640       -1.2687416854
 C         -4.3260667009        0.9993447754       -0.8882911316
 C         -2.9592017920        0.7265165944       -0.4320472195
 N         -2.0201702350        1.5428807164       -0.8480382813
 C         -0.7371186860        1.2454091433       -0.5807568934
 C          0.2970608022        2.1112728862       -0.9894474093
 C          1.5994394571        1.7432341464       -0.8129912869
 C          1.9289910894        0.5002370381       -0.2258492145
 N          3.2875211908        0.1449801608       -0.1026136209
 C          4.1481132369        0.9217883411        0.6752573675
 C          3.6901711329        1.9794920287        1.4510517763
 C          4.5694192570        2.7319805789        2.2149800289
 C          5.9162508721        2.4314578669        2.2273811226
 C          6.3841504273        1.3568840669        1.4851059296
 C          5.5119316449        0.6035973545        0.7218326072
 O          6.0419445362       -0.4610560912        0.0370842812
 C          5.1779440526       -1.2336953221       -0.6988518558
 C          5.7245890206       -2.3089137748       -1.3744333904
 C          4.9250699207       -3.1184440838       -2.1675897543
 C          3.5801883010       -2.8342938689       -2.2886970953
 C          3.0259870973       -1.7596434133       -1.6099416649
 C          3.8075703137       -0.9540460534       -0.7916703484
 C          0.9401336241       -0.3492624715        0.2099138338
 C         -0.4075733538        0.0178088681        0.0583694599
 N         -1.3822636151       -0.7540881892        0.5761505781
 C         -2.6310703201       -0.3962095885        0.4004134420
 C         -3.6516951201       -1.1657812255        1.1203467802
 C         -4.7377657857       -0.5311278943        1.7198912748
 C         -5.6804810682       -1.2717907756        2.4067128031
 C         -5.5535972592       -2.6482881578        2.5016152731
 C         -4.4664446625       -3.2826531407        1.9230292834
 C         -3.5151693772       -2.5462721130        1.2428889832
 C         -4.7678539132        2.3165773210       -0.9868556738
 C         -6.0490727854        2.5910584499       -1.4256260756
 H         -7.8985362199        1.7706752665       -2.1278577777
 H         -7.1074688507       -0.5626510805       -2.0108083277
 H         -4.8319494134       -1.0590284253       -1.2320043310
 H          0.0300869020        3.0443280679       -1.4603323573
 H          2.4026986460        2.3872938870       -1.1397169801
 H          2.6370323855        2.2126625085        1.4641173276
 H          4.1872501846        3.5518087940        2.8034548676
 H          6.6047738030        3.0154108720        2.8172858976
 H          7.4270767696        1.0832594262        1.4883901923
 H          6.7823251916       -2.4911748023       -1.2716570257
 H          5.3603078070       -3.9555037404       -2.6899960982
 H          2.9472669025       -3.4436905011       -2.9152557698
 H          1.9764169882       -1.5415198354       -1.7265832030
 H          1.1751691510       -1.2904043390        0.6822244881
 H         -4.8330164507        0.5432419910        1.6620137156
 H         -6.5175443062       -0.7723319721        2.8719386369
 H         -6.2977209958       -3.2240029110        3.0318130779
 H         -4.3596846229       -4.3543097913        2.0047508008
 H         -2.6605181485       -3.0266679900        0.7915755388
 H         -4.0942200377        3.1127783693       -0.7091894704
 H         -6.3878092698        3.6146426884       -1.4899035320
  57
  -91.7479018551000       0.131459698796740      !
 C         -6.9300373068        1.8139093026       -1.4727329557
 C         -6.0975858499        1.3940371647       -2.4973690745
 C         -4.8061748304        0.9887459384       -2.2188907690
 C         -4.3388327256        0.9835018705       -0.9069636640
 C         -2.9640520505        0.5477067477       -0.6338347992
 N         -2.0380673893        0.9553838634       -1.4699946385
 C         -0.7527230882        0.6675284590       -1.2007208414
 C          0.2695380467        1.0899483111       -2.0745694101
 C          1.5759617849        0.8585587530       -1.7552274984
 C          1.9247608791        0.1879388463       -0.5599954660
 N          3.2866205718       -0.0139373254       -0.2654107593
 C          3.8641666640        0.5255482753        0.8886648082
 C          3.1411937252        1.2762297509        1.8071783761
 C          3.7508387172        1.7996474314        2.9372304612
 C          5.0953543371        1.5905640158        3.1661687200
 C          5.8392531611        0.8710079860        2.2432131780
 C          5.2370692449        0.3513836291        1.1122841575
 O          6.0520965488       -0.3125332647        0.2297834075
 C          5.4666305442       -0.8558906891       -0.8854082168
 C          6.2902646620       -1.5545988070       -1.7484364257
 C          5.7654652519       -2.1616686267       -2.8797650480
 C          4.4094976726       -2.0851505749       -3.1247325675
 C          3.5794377696       -1.3852773925       -2.2622811817
 C          4.0955523044       -0.7349547421       -1.1479111315
 C          0.9458818900       -0.2504323621        0.3005888269
 C         -0.4055942579       -0.0199191790       -0.0054382140
 N         -1.3696960580       -0.4947832531        0.8076329671
 C         -2.6226794812       -0.2626826592        0.4990330063
 C         -3.6384602912       -0.8917045453        1.3529280055
 C         -4.7596404706       -1.5110606072        0.8056260249
 C         -5.6955880302       -2.1035825407        1.6318375556
 C         -5.5272833891       -2.0818913595        3.0070260809
 C         -4.4055018796       -1.4824954439        3.5557113707
 C         -3.4605451789       -0.8979740756        2.7338964697
 C         -5.1739450892        1.4256569753        0.1167084936
 C         -6.4613928877        1.8385129281       -0.1690760732
 H         -7.9399789298        2.1285735548       -1.6901076825
 H         -6.4566299622        1.3843381352       -3.5159986721
 H         -4.1452953732        0.6636338348       -3.0079203633
 H         -0.0094912216        1.6125728155       -2.9760162517
 H          2.3686493292        1.1996081766       -2.4049458955
 H          2.0934953695        1.4643760821        1.6362091443
 H          3.1605668171        2.3744714125        3.6340995024
 H          5.5734350799        1.9891830294        4.0467448710
 H          6.8962436857        0.7065548586        2.3785522226
 H          7.3410318966       -1.6151598467       -1.5144621669
 H          6.4165318763       -2.6994248062       -3.5505354293
 H          3.9818101004       -2.5727875166       -3.9871474413
 H          2.5188540260       -1.3510138717       -2.4555045443
 H          1.1895093829       -0.7823365759        1.2070622593
 H         -4.8888766670       -1.5418667222       -0.2663959599
 H         -6.5609807355       -2.5847434979        1.2006374048
 H         -6.2660711486       -2.5381965796        3.6490041223
 H         -4.2659691209       -1.4731975292        4.6267180714
 H         -2.5787342110       -0.4330574531        3.1474555903
 H         -4.8089312614        1.4614378311        1.1326637406
 H         -7.1023040474        2.1815057530        0.6297712715
  57
  -91.7477488243000       0.111805854868331      !
 C         -6.8592850677        2.0281643545       -1.3989882708
 C         -6.0808338558        1.5534231678       -2.4419968987
 C         -4.8171496880        1.0534104414       -2.1916585825
 C         -4.3258831718        1.0062489265       -0.8894799974
 C         -2.9693231401        0.5023871673       -0.6449532467
 N         -2.0440405043        0.8741592729       -1.4984814895
 C         -0.7626271737        0.5630542817       -1.2391157866
 C          0.2598756783        0.9586473856       -2.1251797599
 C          1.5659200542        0.7400794312       -1.7963012076
 C          1.9139010823        0.1038190119       -0.5818214056
 N          3.2755055123       -0.0624046985       -0.2665582042
 C          3.8267519030        0.5219759432        0.8794386447
 C          3.0708057892        1.2543267419        1.7864300920
 C          3.6548545588        1.8197198585        2.9095558061
 C          5.0067622415        1.6725702802        3.1436012141
 C          5.7827404420        0.9742555616        2.2311654614
 C          5.2056822771        0.4129038109        1.1068120750
 O          6.0520277491       -0.2240741576        0.2339588073
 C          5.4940109032       -0.8089788059       -0.8740637346
 C          6.3507758608       -1.4773613160       -1.7289826116
 C          5.8558036469       -2.1244748337       -2.8513917409
 C          4.4972311820       -2.1198387270       -3.0945519857
 C          3.6343049239       -1.4498274131       -2.2407869575
 C          4.1188471235       -0.7576484653       -1.1373997375
 C          0.9336961057       -0.3275690868        0.2810428451
 C         -0.4175677241       -0.1058047361       -0.0325601226
 N         -1.3839330902       -0.5642228688        0.7865934653
 C         -2.6357132808       -0.3145624561        0.4855746927
 C         -3.6551859076       -0.9303237056        1.3434344651
 C         -4.8078458243       -1.4968334842        0.8040624111
 C         -5.7432928669       -2.0855242082        1.6336736854
 C         -5.5437457129       -2.1118736516        3.0046325692
 C         -4.3923860842       -1.5631105083        3.5451796981
 C         -3.4481335001       -0.9831017635        2.7197490051
 C         -5.1090146118        1.4946124407        0.1541715325
 C         -6.3671385057        2.0045114573       -0.1039735681
 H         -7.8453785725        2.4224397792       -1.5950200365
 H         -6.4586823467        1.5786342090       -3.4535662505
 H         -4.1959753804        0.6898981622       -2.9960850687
 H         -0.0183793027        1.4597158098       -3.0389918742
 H          2.3591367393        1.0698979328       -2.4511000897
 H          2.0165754458        1.3962998511        1.6118566430
 H          3.0387188122        2.3782706007        3.5971782719
 H          5.4647824920        2.1039703389        4.0194236223
 H          6.8459224654        0.8591314529        2.3688035169
 H          7.4033765168       -1.4824349676       -1.4953560601
 H          6.5321074523       -2.6383042335       -3.5159224696
 H          4.0934544491       -2.6414537649       -3.9485138046
 H          2.5729568180       -1.4711587384       -2.4319664375
 H          1.1761178074       -0.8412999212        1.1982346561
 H         -4.9616069752       -1.4909042355       -0.2651153877
 H         -6.6330073107       -2.5261658551        1.2085957295
 H         -6.2819121693       -2.5650653306        3.6495729765
 H         -4.2299686872       -1.5899539952        4.6127197332
 H         -2.5435408576       -0.5573201045        3.1264236771
 H         -4.7238725121        1.4918180616        1.1633883450
 H         -6.9674736893        2.3842910045        0.7097148144
  57
  -91.7477395808000       0.110717565580357      !
 C         -6.8596842877        2.4549091857       -0.3140197394
 C         -6.0339248830        2.6442329509       -1.4102595080
 C         -4.7667533265        2.0935646796       -1.4269074499
 C         -4.3165817450        1.3329451621       -0.3500888911
 C         -2.9622517388        0.7722668492       -0.3763144142
 N         -2.0246473111        1.5113063554       -0.9208217954
 C         -0.7443960655        1.1182174147       -0.8172534513
 C          0.2879150330        1.8692494681       -1.4145545638
 C          1.5901924109        1.5274678466       -1.1920027279
 C          1.9243787842        0.4333540603       -0.3601574471
 N          3.2838844312        0.1396516677       -0.1394138888
 C          4.1179657148        1.0941342197        0.4490245858
 C          3.6355263219        2.3062940375        0.9277804557
 C          4.4905557406        3.2360217152        1.4998213076
 C          5.8383480221        2.9645597740        1.6186604992
 C          6.3293572861        1.7424436671        1.1835718402
 C          5.4808054422        0.8121502169        0.6126925555
 O          6.0338051900       -0.3863622266        0.2389649462
 C          5.1938058149       -1.3309245831       -0.2964100491
 C          5.7629296451       -2.5414875212       -0.6461355914
 C          4.9921971564       -3.5361434010       -1.2288418347
 C          3.6549429015       -3.3005618276       -1.4748350681
 C          3.0784472500       -2.0899411396       -1.1218469889
 C          3.8281013886       -1.0952462784       -0.5065485092
 C          0.9356652007       -0.3346989902        0.2083045769
 C         -0.4123278695       -0.0277119549       -0.0418050744
 N         -1.3880098841       -0.8416005869        0.4031454144
 C         -2.6378072681       -0.5034018222        0.1977369068
 C         -3.6585842373       -1.5014909476        0.5340025092
 C         -4.7680782321       -1.6971980855       -0.2862337869
 C         -5.7057971599       -2.6597926297        0.0347942238
 C         -5.5504789982       -3.4342910629        1.1732760421
 C         -4.4407220980       -3.2560856916        1.9830661455
 C         -3.4948642815       -2.3010356830        1.6626177218
 C         -5.1453350563        1.1609999552        0.7572423572
 C         -6.4085831327        1.7205177820        0.7709788204
 H         -7.8501283669        2.8851737242       -0.3009442346
 H         -6.3789047469        3.2256494196       -2.2525860901
 H         -4.1104541175        2.2370567462       -2.2715798154
 H          0.0207280456        2.7109345319       -2.0340880394
 H          2.3914072960        2.0890316917       -1.6497443704
 H          2.5816838993        2.5251934661        0.8601345944
 H          4.0881964442        4.1722464008        1.8548354077
 H          6.5085360711        3.6860676862        2.0581865507
 H          7.3724331957        1.4881922530        1.2827946575
 H          6.8153931361       -2.6824541736       -0.4588276774
 H          5.4438860775       -4.4786517796       -1.4945918706
 H          3.0446359938       -4.0555211528       -1.9460530343
 H          2.0359485130       -1.9176680514       -1.3359422733
 H          1.1694222137       -1.1795392144        0.8373067384
 H         -4.8856109574       -1.1070109769       -1.1832307253
 H         -6.5613232169       -2.8080172958       -0.6075774203
 H         -6.2895598827       -4.1808342894        1.4236517707
 H         -4.3117635015       -3.8660508195        2.8650977632
 H         -2.6223957217       -2.1549830924        2.2809163650
 H         -4.7926626059        0.6047424536        1.6133256822
 H         -7.0438120451        1.5849769673        1.6339408261
  57
  -91.7475605931000       9.161350026542833E-002 !
 C         -6.8027552528        2.1717046324       -1.3020311955
 C         -6.0426375987        1.7242544100       -2.3702847190
 C         -4.7950227079        1.1723914747       -2.1502754322
 C         -4.3005817108        1.0475771585       -0.8542869415
 C         -2.9633092246        0.4833328652       -0.6410032161
 N         -2.0348130373        0.8323380700       -1.5005261096
 C         -0.7605531299        0.4856390733       -1.2543984773
 C          0.2649693134        0.8558558202       -2.1479374757
 C          1.5688853170        0.6341907225       -1.8134023300
 C          1.9108786700        0.0214139614       -0.5851627053
 N          3.2714794015       -0.1175981882       -0.2515023924
 C          3.8056019103        0.5270782524        0.8705582174
 C          3.0241244157        1.2407027030        1.7707512303
 C          3.5924503772        1.8674171906        2.8691952291
 C          4.9536236685        1.8007853236        3.0854393038
 C          5.7530813417        1.1200543663        2.1800057634
 C          5.1914343248        0.4976449357        1.0801523921
 O          6.0595608520       -0.1165982823        0.2121991299
 C          5.5187804256       -0.7668168205       -0.8675443071
 C          6.3972524110       -1.4173184129       -1.7141706927
 C          5.9205716090       -2.1254209417       -2.8073209974
 C          4.5602640617       -2.1985539103       -3.0298457506
 C          3.6756905232       -1.5455666202       -2.1851147766
 C          4.1396452257       -0.7946895965       -1.1117447161
 C          0.9267041781       -0.4052133141        0.2756531141
 C         -0.4230833909       -0.1847314505       -0.0460712094
 N         -1.3966410607       -0.6406789632        0.7654716107
 C         -2.6447958620       -0.3677531816        0.4698250528
 C         -3.6781657097       -0.9830813598        1.3100678399
 C         -4.8601588305       -1.4751349204        0.7599762469
 C         -5.8199746874       -2.0434164681        1.5755099801
 C         -5.6140354719       -2.1281435437        2.9431996018
 C         -4.4307766105       -1.6624451983        3.4928444864
 C         -3.4640010887       -1.0998323545        2.6814536198
 C         -5.0625061948        1.5150249324        0.2147567423
 C         -6.3056354525        2.0736654550       -0.0124104772
 H         -7.7776126242        2.6034051103       -1.4738142469
 H         -6.4231520969        1.8092612027       -3.3775516884
 H         -4.1890358603        0.8259475808       -2.9734988996
 H         -0.0083594060        1.3467086211       -3.0687388369
 H          2.3652875232        0.9482817337       -2.4720798458
 H          1.9613869816        1.3212403833        1.6096548311
 H          2.9564424871        2.4102115909        3.5514016196
 H          5.4000491457        2.2810330528        3.9416323409
 H          6.8229029532        1.0668581576        2.3033797398
 H          7.4519871331       -1.3595741383       -1.4978456859
 H          6.6134581595       -2.6249245982       -3.4657277020
 H          4.1728656066       -2.7674284203       -3.8609401187
 H          2.6139256347       -1.6236537635       -2.3593279510
 H          1.1655308851       -0.9099736654        1.1987527164
 H         -5.0198485654       -1.4253207299       -0.3070735612
 H         -6.7338992060       -2.4219851763        1.1419610536
 H         -6.3718466872       -2.5633034268        3.5778277864
 H         -4.2622936848       -1.7380074197        4.5570492493
 H         -2.5371238379       -0.7333706991        3.0955586107
 H         -4.6726615867        1.4571368187        1.2203939801
 H         -6.8895123515        2.4351121332        0.8211970645
  57
  -91.7463729663000       2.607137815693049E-002 !
 C         -6.9440391084        2.2093398672       -0.6925776479
 C         -6.6271992796        0.9361539336       -1.1381326837
 C         -5.3325162239        0.4629664386       -1.0353152130
 C         -4.3384512718        1.2685395213       -0.4866906167
 C         -2.9527394431        0.7983943060       -0.3418893602
 N         -2.0128094140        1.6030646281       -0.7783621097
 C         -0.7296305898        1.2163583925       -0.6645618893
 C          0.3058617060        2.0420728511       -1.1471209387
 C          1.6058717772        1.6544369980       -1.0039551595
 C          1.9390810196        0.4425952326       -0.3530636176
 N          3.2975640652        0.1214442632       -0.1820595429
 C          4.1436122951        1.0158057321        0.4836885298
 C          3.6711788669        2.1685835124        1.1004718933
 C          4.5396407728        3.0487841051        1.7273482276
 C          5.8934824130        2.7840748704        1.7683039625
 C          6.3747548892        1.6107223945        1.2078116376
 C          5.5115470592        0.7294301672        0.5827269524
 O          6.0570548148       -0.4290055251        0.0923510482
 C          5.2024360504       -1.3349871789       -0.4836728343
 C          5.7621070824       -2.5219896822       -0.9198501521
 C          4.9814125372       -3.4712492376       -1.5608672613
 C          3.6448033895       -3.2093120985       -1.7832302824
 C          3.0775091178       -2.0244121981       -1.3401088458
 C          3.8344250683       -1.0814200660       -0.6554538124
 C          0.9450255892       -0.3916404682        0.1037011733
 C         -0.4021724698       -0.0302034445       -0.0663900261
 N         -1.3782521975       -0.8532753920        0.3677246347
 C         -2.6253901369       -0.4657510841        0.2480628105
 C         -3.6530864578       -1.3924073513        0.7444879144
 C         -3.5551768915       -2.7426327443        0.4188172410
 C         -4.5197809026       -3.6354077963        0.8461324998
 C         -5.5827572159       -3.1922172656        1.6156810442
 C         -5.6676360943       -1.8556558351        1.9707453506
 C         -4.7100426187       -0.9569081160        1.5395880422
 C         -4.6557472538        2.5587501850       -0.0712015329
 C         -5.9545103954        3.0221048622       -0.1649999273
 H         -7.9597815374        2.5694013667       -0.7624552715
 H         -7.3940280051        0.3074576253       -1.5660565517
 H         -5.0878601494       -0.5268077310       -1.3920651381
 H          0.0395287068        2.9685339850       -1.6311097630
 H          2.4065635670        2.2689054997       -1.3886697623
 H          2.6142021887        2.3821897773        1.0966464178
 H          4.1431019898        3.9418490343        2.1851891216
 H          6.5746741600        3.4702198892        2.2459032686
 H          7.4215340297        1.3556270793        1.2486677711
 H          6.8160298970       -2.6781518333       -0.7541175319
 H          5.4247517725       -4.3967598402       -1.8922085352
 H          3.0277789566       -3.9246229022       -2.3047429425
 H          2.0363074742       -1.8304915338       -1.5404473850
 H          1.1708500183       -1.3170913175        0.6098613007
 H         -2.7207816920       -3.0754425573       -0.1799275472
 H         -4.4427080423       -4.6791960162        0.5790772916
 H         -6.3398508685       -3.8882210378        1.9452965898
 H         -6.4858764662       -1.5105528135        2.5854219983
 H         -4.7749862194        0.0811758664        1.8302553006
 H         -3.8748568532        3.1828191358        0.3368046052
 H         -6.1955519761        4.0186438601        0.1748804122
