  57
        -92.08356346
 C         -6.9191040897        1.7110696704        1.6156872048
 C         -6.0391066790        2.7105441466        1.2339737754
 C         -4.7506831810        2.3900106710        0.8511526371
 C         -4.3334202440        1.0613434328        0.8305576949
 C         -2.9588265398        0.7453181069        0.4259482935
 N         -2.0181029188        1.5546015672        0.8531494118
 C         -0.7340044537        1.2397919723        0.6110344575
 C          0.3022265039        2.0917230220        1.0436669547
 C          1.6038761107        1.7203216587        0.8701508749
 C          1.9326731192        0.4898407456        0.2559143061
 N          3.2899498366        0.1387487061        0.1200443087
 C          3.8044099579       -1.0038449224        0.7404140480
 C          3.0219996892       -1.8489757577        1.5171875235
 C          3.5697420304       -2.9692678291        2.1232949744
 C          4.9099316392       -3.2609647264        1.9714041537
 C          5.7118670757       -2.4109966042        1.2247575762
 C          5.1715702006       -1.2898148794        0.6225640923
 O          6.0398994681       -0.4796287227       -0.0658601420
 C          5.5166346544        0.6286056653       -0.6825875692
 C          6.3945674559        1.4210752800       -1.3983962317
 C          5.9342483140        2.5399089622       -2.0769122827
 C          4.5882834649        2.8435407203       -2.0524181168
 C          3.7037482029        2.0521123821       -1.3355241775
 C          4.1546372795        0.9514104444       -0.6171978690
 C          0.9411887193       -0.3498890124       -0.1937925652
 C         -0.4059069343        0.0151844267       -0.0333846621
 N         -1.3809443672       -0.7628826479       -0.5422913559
 C         -2.6295951813       -0.4007891912       -0.3719155803
 C         -3.6486321368       -1.2015050098       -1.0611237483
 C         -4.7267684547       -0.5970021767       -1.7039304218
 C         -5.6655035857       -1.3712194791       -2.3586560665
 C         -5.5419076648       -2.7510995452       -2.3787909965
 C         -4.4622115160       -3.3564221307       -1.7568759120
 C         -3.5154566288       -2.5868229219       -1.1079115832
 C         -5.2170932264        0.0622732171        1.2332095222
 C         -6.5015498950        0.3899356655        1.6235749225
 H         -7.9262389861        1.9612631848        1.9145255853
 H         -6.3577750574        3.7426326022        1.2391350919
 H         -4.0523950991        3.1586324199        0.5568622172
 H          0.0364847776        3.0186877108        1.5271023437
 H          2.4072479105        2.3537851987        1.2166988496
 H          1.9763379720       -1.6274244831        1.6586843434
 H          2.9354791088       -3.6082172565        2.7182630683
 H          5.3401311187       -4.1335066103        2.4368713854
 H          6.7670688121       -2.5962002055        1.1029460346
 H          7.4360645889        1.1426959875       -1.4148995757
 H          6.6273343857        3.1556248604       -2.6276832351
 H          4.2107924787        3.6968552595       -2.5944607645
 H          2.6516752464        2.2899775056       -1.3412116526
 H          1.1728259090       -1.2826316649       -0.6840440227
 H         -4.8189060432        0.4790973317       -1.7050798292
 H         -6.4961810712       -0.8954025581       -2.8586728898
 H         -6.2822855351       -3.3524022324       -2.8851874569
 H         -4.3581438415       -4.4311800781       -1.7793048154
 H         -2.6657545726       -3.0446595738       -0.6248633323
 H         -4.8925341101       -0.9677424487        1.2554245364
 H         -7.1801076637       -0.3894963372        1.9373446540
