112
 energy: -173.620302418434 gnorm: 0.000095582451 xtb: 6.7.1 (edcfbbe)
N          -12.61171785279960       -3.45984793251986       -0.01841438448766
C          -11.51627635347944       -3.08710324954618       -0.02236356675504
C          -10.19978270785363       -2.63525721051201       -0.02508450230680
C           -9.13862594656505       -3.48929411046674        0.35625932565455
C           -7.85433610481793       -3.03413218145566        0.35814089034983
C           -7.53435605370487       -1.69581653655101       -0.00473793433574
C           -6.17183551202156       -1.32114987625966        0.03343127103927
N           -5.19579584369199       -2.22871222688939        0.15869766546359
C           -4.04076826736263       -1.56766708413391        0.10430451715797
C           -2.72803839028747       -2.10951436101594        0.14719871550728
C           -2.51471467643464       -3.49081353787698        0.22508934313859
C           -1.24290147967514       -4.00778802955435        0.22088451443618
C           -0.13976757933320       -3.14820338685552        0.13993228418975
C            1.22473955472033       -3.67535430043874        0.11246424163052
C            1.52665366777991       -4.85774106505641       -0.56902861022942
C            2.81422396014258       -5.34225206372566       -0.62264062626530
C            3.85618729660194       -4.66518140255215        0.01953052582016
N            5.16101902323987       -5.14417552589246       -0.04140058592023
C            5.40457585825980       -6.52419066332488       -0.08542673019965
C            6.41369470813629       -7.03634134710811       -0.90109372462899
C            6.65457638611453       -8.39641143917487       -0.93561516143947
C            5.89495542142622       -9.26314559951213       -0.16566371996653
C            4.89053186316462       -8.75863893729711        0.64536812874921
C            4.64501758257892       -7.39980318926619        0.69098738266063
C            6.24156141811464       -4.25245833528106       -0.06923995107540
C            7.42277906493813       -4.55595693203037        0.60863603106594
C            8.48848462876273       -3.67725329051649        0.57462090476324
C            8.39308885309660       -2.48472479788138       -0.12526217421919
C            7.22172399985595       -2.17891671291750       -0.80003317264840
C            6.15311715264560       -3.05424975904861       -0.77914713388747
C            3.55776024972544       -3.49243977506662        0.72078909976994
C            2.27001361297664       -3.00802854795083        0.75799679104816
C           -0.35597354175840       -1.77397762217097        0.07408870350477
C           -1.63383445419928       -1.21361239721162        0.08247680491336
C           -1.86636250350489        0.22411702596864        0.03692381241345
C           -0.81727806386185        1.12644292397795        0.07853752099148
C           -0.98741314393242        2.51540442727966        0.02877479516844
C            0.15220086884978        3.40566802535034        0.05364830943614
C            0.11811313558613        4.65446731533367       -0.59173684515227
C            1.20496969920508        5.49299438976828       -0.59284792637875
C            2.38783408844927        5.13319300569655        0.06832098840124
N            3.49128139935386        5.97673094878556        0.06433752027495
C            4.78842290606832        5.44852886660094        0.07761383078669
C            5.79772102529539        6.08048338742110        0.80592440852801
C            7.07751922000884        5.56063631914614        0.81408236676546
C            7.37048768737210        4.40521778594738        0.10629067866713
C            6.37139579305455        3.77391284970617       -0.61822617272774
C            5.08995275793528        4.28930618248058       -0.63939338840932
C            3.31586388785742        7.36715231726381        0.04294340071760
C            2.30154666326585        7.96291471028315        0.79390613450656
C            2.13269066738222        9.33373128929322        0.76651914338577
C            2.97005499020673       10.12871819567347       -0.00062704502703
C            3.98238010443302        9.54151640965052       -0.74375574768953
C            4.15712165827530        8.17130762740706       -0.72714433757817
C            2.42785173917784        3.89954674805117        0.73305899321265
C            1.34234706006805        3.05994151122068        0.71862345778828
C           -2.31025323686175        3.00910896754879       -0.04450478366324
C           -3.37253379857135        2.15866070092816       -0.05992924855320
C           -3.20719250314669        0.74846165674520       -0.03187332194628
C           -4.26051699629720       -0.16737942152439       -0.03541075693275
N           -5.63330232673789       -0.02985733045373       -0.08864264654490
C           -6.35901735950226        1.17629835199432       -0.15515194582897
C           -6.39651756606673        1.90434127979214       -1.34266612089684
C           -7.11505806357832        3.08436535931966       -1.40166580869619
C           -7.79628279386801        3.54295961308867       -0.28462008464657
C           -7.75801272664237        2.81897713871585        0.89638155939585
C           -7.04141125598032        1.63799102587787        0.96692125568489
C           -8.60509768788612       -0.85983796508598       -0.41182816360542
C           -9.89290429902384       -1.31550760238018       -0.42130416501665
H           -9.36541962898717       -4.50587460295644        0.64659484923624
H           -7.03986206434783       -3.67939422501868        0.64758308209535
H           -3.38198635028694       -4.13064333113720        0.28473952830226
H           -1.09127610519122       -5.07366852115125        0.29949843249596
H            0.74408104751914       -5.38086198416303       -1.09782328065665
H            3.02943184056236       -6.24204550480393       -1.17985475419990
H            6.99938157666051       -6.36275585528797       -1.50934189020671
H            7.43557826695664       -8.78258057853770       -1.57392200521339
H            6.08483896763190      -10.32536060051462       -0.19681594933855
H            4.29888308612913       -9.42707424483877        1.25341974773601
H            3.87004527282988       -7.00631258237242        1.33236331000280
H            7.49508563939418       -5.47934811634502        1.16425312639471
H            9.39643056146660       -3.92177679995041        1.10601596274135
H            9.22670383597597       -1.79926198100320       -0.14595912405321
H            7.14215086288996       -1.25605538392922       -1.35545342875937
H            5.24684522073100       -2.82151707494018       -1.31868796948295
H            4.34577643613765       -2.97349267646704        1.24633097834393
H            2.06012821033151       -2.11598893212451        1.32882939682993
H            0.51008912152588       -1.14005408504490       -0.02424073905821
H            0.19325233412892        0.75537063154967        0.11767358874623
H           -0.76504348331599        4.94296754420113       -1.14102672464336
H            1.16180959780001        6.43094284931272       -1.12680483577113
H            5.56825499554742        6.97312904421633        1.36894095860330
H            7.84921797605602        6.05646700618170        1.38417866561397
H            8.37121237140286        4.00079893201738        0.11829094284345
H            6.59341360785167        2.87830759360979       -1.17939922597426
H            4.31677619530552        3.80601924466008       -1.21827842549243
H            1.65745899437998        7.34511136320809        1.40233771928090
H            1.34692421361689        9.78496823187909        1.35426504385615
H            2.83516256027259       11.19954622501746       -0.01822200568141
H            4.63572998667015       10.15431063905447       -1.34706728874705
H            4.93889584493647        7.71327752936075       -1.31508289573931
H            3.31749530081361        3.62197079545489        1.27912594982018
H            1.39250907018938        2.13492222999258        1.27232199679439
H           -2.48482508958782        4.07441044361080       -0.04216800932273
H           -4.37170405532727        2.56228855873011       -0.07401892670918
H           -5.86289801166405        1.53599597114997       -2.20712708057479
H           -7.14610188625311        3.64457577540250       -2.32432002300232
H           -8.35838867996213        4.46311735577022       -0.33559930264464
H           -8.28705494719414        3.17415336702721        1.76807755328298
H           -7.00970433866540        1.06212028750334        1.88046145766633
H           -8.40957114608338        0.14537930220040       -0.74739134287173
H          -10.69730541362651       -0.66693333905906       -0.74079044670251
