112
 energy: -173.620276838024 gnorm: 0.000138111393 xtb: 6.7.1 (edcfbbe)
N          -12.70046953279865       -3.16706423519305       -0.06973921805747
C          -11.59722745050848       -2.81909229041634       -0.04746819550879
C          -10.27081853605909       -2.39753390202404       -0.02314864957656
C           -9.22008850030918       -3.29102848839251       -0.33640670206598
C           -7.92559750492908       -2.86574670766167       -0.31814712900698
C           -7.58479570071903       -1.52112669910359       -0.00159741191978
C           -6.21306805615178       -1.17846062877759       -0.01403007555938
N           -5.25518851970481       -2.11201656519714       -0.05954736304365
C           -4.08739841406224       -1.47402012947986        0.00181043834790
C           -2.78696235324744       -2.04574890271210        0.01183530261610
C           -2.60394366092036       -3.43326930898572       -0.02056675567129
C           -1.34385677537190       -3.97778259710532       -0.00158606182140
C           -0.22272396783513       -3.14055322430890        0.06307352728780
C            1.13148860062454       -3.69357302713554        0.07965484851344
C            1.45728349174721       -4.82388359612637       -0.67527915602860
C            2.73858464360521       -5.32741322091143       -0.69034704662531
C            3.74904968490331       -4.72246114671975        0.06414899752188
N            5.04904680113571       -5.21820579273029        0.04085854194962
C            5.27628716161334       -6.59515629038917       -0.09177647231264
C            6.32606670174355       -7.06374596259460       -0.88199473476640
C            6.55048077688212       -8.42159540131654       -1.00343300930694
C            5.73356412594968       -9.32916716749469       -0.34760276698850
C            4.68815436302914       -8.86803395142081        0.43699382039549
C            4.45881356038714       -7.51207081905950        0.56975710363725
C            6.14010642993170       -4.34481969262853        0.14047893079909
C            7.27868526046056       -4.71777150778805        0.85562982600081
C            8.35573369067274       -3.85691803163320        0.94495039576207
C            8.31360838040498       -2.61385354853780        0.33336092545101
C            7.18396144971933       -2.23807960836937       -0.37628640017551
C            6.10520373912640       -3.09495144794780       -0.47943971939703
C            3.42505985320207       -3.60474224604774        0.83985195662162
C            2.14428509084608       -3.10093772610764        0.83983124768970
C           -0.40935001543150       -1.76074488090140        0.09663502073657
C           -1.67405697266816       -1.17243420416945        0.06483126365253
C           -1.87481918596930        0.27109506743142        0.06828299278610
C           -0.80471430837651        1.14902979564731        0.07818842939938
C           -0.94270550717197        2.54208701385799        0.03103531380244
C            0.22039688904939        3.40139794634849        0.03251203889252
C            0.20971128892757        4.65411061342218       -0.60648340593713
C            1.32237716704655        5.45768659447260       -0.63226741142981
C            2.51086066326226        5.05563913106343       -0.00668677961130
N            3.64308210783706        5.85955821612298       -0.04282116560817
C            4.91912252623400        5.28403796638813       -0.08420229000903
C            5.97871494503821        5.87075871921533        0.60974191253368
C            7.23745686525455        5.30355172855638        0.56369496622064
C            7.45940112027740        4.14546543378337       -0.16527440223606
C            6.41011631848318        3.55910533775012       -0.85585279577257
C            5.14891548721326        4.12152374606761       -0.82217090729916
C            3.51675714554958        7.25520253206135       -0.04766533116868
C            2.55222722552954        7.87926076944415        0.74475001789286
C            2.43215272272419        9.25545320491541        0.73522259964361
C            3.26909914846058       10.02734805467154       -0.05565171895343
C            4.23104774115030        9.41163874200911       -0.84141390848282
C            4.35723339460045        8.03602136185093       -0.84220526803807
C            2.52818039639379        3.81948817539038        0.65424683604275
C            1.41539893276386        3.01670113173896        0.66774825865336
C           -2.25448891072460        3.06474376202214       -0.04079318316500
C           -3.33644292423067        2.23942920765774       -0.02351414140904
C           -3.20457776869248        0.82702150647609        0.04533396737627
C           -4.27885855012609       -0.06410314862190        0.06149559436171
N           -5.64930994495540        0.10562068120735        0.05729654003286
C           -6.34936074100642        1.32792940091374        0.03521744079521
C           -7.00489365238720        1.73126744296886       -1.12486313491448
C           -7.69622021136420        2.92910707293322       -1.14125680766054
C           -7.73549635786656        3.72820283554425       -0.00966537817619
C           -7.08075948656044        3.32789863121536        1.14493650877385
C           -6.38816764593923        2.13136331932555        1.17306420946491
C           -8.64602849112979       -0.64462580935657        0.33887666988603
C           -9.94424919246496       -1.06994354344256        0.32810778274137
H           -9.46294272283372       -4.31338543718317       -0.59134991186431
H           -7.11865774461065       -3.54087189196498       -0.55608680490462
H           -3.48544805112109       -4.05533983371294       -0.05368680042117
H           -1.21702760782049       -5.04974737621948       -0.00664754269038
H            0.70134076898835       -5.28787756724715       -1.29079010681365
H            2.97478994627005       -6.18433281119335       -1.30380914473385
H            6.95635008385471       -6.35746213112149       -1.40223708442511
H            7.36361793970368       -8.77367726565201       -1.62096023067835
H            5.91078216957084      -10.38935889517603       -0.44699730182058
H            4.05147393719195       -9.56876443772361        0.95679863835892
H            3.65171898712252       -7.15342778299312        1.19167685377586
H            7.30884806718937       -5.68104249488458        1.34327999302030
H            9.23036970638124       -4.15578829587531        1.50371424021112
H            9.15600818147784       -1.94308374100335        0.40888830480826
H            7.14551581072759       -1.27421241699452       -0.86201163422219
H            5.23266683721307       -2.80722473908265       -1.04731942291081
H            4.18706658176452       -3.14451855217275        1.45140307520533
H            1.91221835364471       -2.25446998472723        1.46856651100195
H            0.47308193806736       -1.14253723819662        0.11560260169165
H            0.19771418685101        0.75488443846644        0.07332935651092
H           -0.67671209185269        4.97413372948633       -1.13239016332092
H            1.29549743157672        6.39943700978488       -1.16064434240943
H            5.80469752685583        6.76582234115274        1.18862083808697
H            8.04857932065962        5.76454888782538        1.10773413022495
H            8.44404509440477        3.70424423923322       -0.19645254034623
H            6.57660569553562        2.66213399493062       -1.43384047858790
H            4.33632139532032        3.67315788655704       -1.37462180851204
H            1.90886366808754        7.27857253974441        1.37084102062512
H            1.68540330363257        9.72891153263197        1.35546706650531
H            3.17241230007271       11.10244497289292       -0.05930734749640
H            4.88291857279969       10.00647385772305       -1.46398141639101
H            5.09952687968992        7.55583615157458       -1.46272574352260
H            3.42327287650505        3.51071323640156        1.17408276325318
H            1.44971458046341        2.08937884455392        1.21873005432407
H           -2.40538304662424        4.13296475319784       -0.07542406420765
H           -4.32527605275696        2.66530890569970       -0.07199944828867
H           -6.97205661745463        1.09785581040234       -1.99948892727805
H           -8.20441921209346        3.23890333382990       -2.04216363244426
H           -8.27754354778278        4.66155474045456       -0.02665205199333
H           -7.11249396071554        3.94662186418351        2.02936010403212
H           -5.87556801702687        1.80795955408675        2.06773073220104
H           -8.43550774529647        0.36824136547083        0.64088360973491
H          -10.74183446665753       -0.39081609949066        0.59712803758669
