112
 energy: -173.693289723849 gnorm: 0.000178837058 xtb: 6.7.1 (edcfbbe)
N          -12.68174257982616       -3.19685048451573        0.07359209974442
C          -11.57928541329171       -2.87554552656664        0.05758013316139
C          -10.22578443956235       -2.47777357466182        0.03934581257600
C           -9.26001446815077       -3.24259823263870        0.70096480461290
C           -7.94348243063661       -2.84162525098033        0.68387645394337
C           -7.55619999188691       -1.67358889108086        0.01620430867683
C           -6.14608897380069       -1.33113585875118        0.03182439098866
N           -5.20803695858302       -2.24668580997254        0.12792343761895
C           -4.02745129340537       -1.58101861404773        0.09222487912008
C           -2.71435929900909       -2.12847876950626        0.12024294236659
C           -2.49515183108284       -3.50903655172560        0.18472674877320
C           -1.22136950532032       -4.01553655836211        0.17581276034720
C           -0.12143501014670       -3.14913717074388        0.09947607651245
C            1.24937012064427       -3.67644992207559        0.07395068757461
C            1.56537760035285       -4.82109472278505       -0.65721765654424
C            2.85707314452008       -5.30135283832306       -0.70738265307888
C            3.88035526385367       -4.65755357164020       -0.00988886199400
N            5.19283434573129       -5.13569766646264       -0.06354233192608
C            5.43473485585818       -6.51471860958330       -0.11076695684029
C            6.46172006973931       -7.02683031153791       -0.90368218880914
C            6.69914267130054       -8.38742801035606       -0.94237563855569
C            5.91592888169471       -9.25838941188108       -0.20205921303931
C            4.89153927686764       -8.75531317218020        0.58387437448299
C            4.65192808919101       -7.39561647095700        0.63568915749682
C            6.26647863358607       -4.23671172484225       -0.07843955038542
C            7.44978867132389       -4.53662532059340        0.59696896379696
C            8.50785722601676       -3.64825510399708        0.57732013717785
C            8.40324796837441       -2.44582211580611       -0.10331591062968
C            7.22917307214445       -2.14132716742260       -0.77322435419349
C            6.16961904434556       -3.02792519578782       -0.76847084335801
C            3.56653269342959       -3.52335569822158        0.74049183115827
C            2.27574430247505       -3.04045261889123        0.77240501474027
C           -0.34114199705562       -1.78303822200281        0.04216766182221
C           -1.62635514939869       -1.22864529510771        0.05840134236679
C           -1.86306020188696        0.20677282225394        0.03324289470433
C           -0.80371659925829        1.11933957431886        0.05482556898466
C           -0.99278916411581        2.49057172310903        0.06646519427924
C            0.15976627192270        3.39951013179461        0.08165335767861
C            0.16277136129851        4.56654525296825       -0.68165019231622
C            1.25479360031884        5.40836776549719       -0.69182401966917
C            2.38126365825575        5.11762299176496        0.07954935240333
N            3.49132249698767        5.96638513835137        0.07113696013051
C            4.78375160642953        5.43114093250239        0.14533805059800
C            5.78038015507641        6.08620626807774        0.86892404752938
C            7.05614698310771        5.55934053934220        0.93219752617975
C            7.35802568707523        4.37040973942823        0.28771462839477
C            6.37022082702814        3.71198283080310       -0.42688010290716
C            5.09441874639907        4.23658281007614       -0.50502921445130
C            3.31280845011728        7.35311996280606       -0.01550056367674
C            2.25530311460027        7.97279298277329        0.65070595928495
C            2.08051505506027        9.34034798626173        0.56011310153660
C            2.95703980642867       10.11250972838146       -0.18524357777436
C            4.01205493839336        9.50274938954102       -0.84502211236117
C            4.18977458131293        8.13470966555906       -0.76776254130216
C            2.37679161217343        3.95979869295058        0.85928971993157
C            1.28774899279494        3.11486561851138        0.85124440247701
C           -2.30218062671966        2.98608647154190        0.07005407555558
C           -3.36826386461930        2.12395791243039        0.04883896103051
C           -3.18375967767301        0.73377871422151        0.01311581580614
C           -4.25218170659441       -0.20623397025765       -0.00878950937050
N           -5.61888890999470       -0.06177051239559       -0.06089301195222
C           -6.36439958242048        1.13587861412675       -0.15520557010852
C           -6.34789358528546        1.87274903801736       -1.33613722795280
C           -7.09755312248471        3.03152641363509       -1.42857534606055
C           -7.86405049416952        3.45327214905028       -0.35320226362957
C           -7.88030288281047        2.71626811503431        0.81957618346361
C           -7.13189746993674        1.55656003651763        0.92411622104251
C           -8.52421379793872       -0.92929399040335       -0.66224864899007
C           -9.84577976785070       -1.32328572599692       -0.64847913851150
H           -9.55482879718248       -4.14139032007928        1.22211627351938
H           -7.18402261356108       -3.42165004235008        1.18409617807334
H           -3.35727859239225       -4.15648935252398        0.23772606214066
H           -1.05878611711098       -5.08110680097886        0.24188315112202
H            0.79356440729238       -5.32185155656525       -1.22331128638715
H            3.08570569785451       -6.17720128040181       -1.29719570632551
H            7.06834554747034       -6.35097544981569       -1.48899676070574
H            7.49680081261545       -8.77067938393307       -1.56223591861585
H            6.10239521538366      -10.32127513813418       -0.23737948911835
H            4.27899500444742       -9.42605350064738        1.16890789710369
H            3.85842109837338       -7.00508382553599        1.25631004156098
H            7.53146419593720       -5.46862801303858        1.13729145778875
H            9.41755594561239       -3.89329189319582        1.10624370964134
H            9.23023596231657       -1.75177789611455       -0.11202401031325
H            7.13996340633308       -1.20936690935034       -1.31258706372027
H            5.25992965738233       -2.79194581452226       -1.30140751765861
H            4.34466644652132       -3.02540904498034        1.30075066102528
H            2.05269580268099       -2.17172221412813        1.37460383895885
H            0.52255932935916       -1.14372680077902       -0.04363596077538
H            0.21110086111437        0.75712092234228        0.04943065554635
H           -0.68988231889087        4.79963907396524       -1.30262066418212
H            1.24697558011042        6.29700522143073       -1.30614135973669
H            5.54619630741389        7.00819661722861        1.38108261584625
H            7.81785388420080        6.07748173221053        1.49664816940614
H            8.35515032246787        3.96002267757904        0.34282860957571
H            6.59667968187717        2.78651556911987       -0.93636724707145
H            4.33008358674517        3.72629450863080       -1.07303841402377
H            1.57622937564816        7.37456275456042        1.24089557273902
H            1.25868184797219        9.80740316239255        1.08341962164021
H            2.81978914093527       11.18143318860332       -0.25063844731262
H            4.69777545852645       10.09578739541043       -1.43277486460385
H            5.00798208403467        7.66121150381221       -1.29084463560034
H            3.23477788824685        3.73063026441470        1.47453256691244
H            1.29840687865581        2.23465868186582        1.47747274254187
H           -2.47326201273297        4.05133269928744        0.11523325816232
H           -4.36871885473884        2.52464577443637        0.07640220055996
H           -5.74559633462028        1.53308846123404       -2.16640222396163
H           -7.08407708336114        3.60360309290856       -2.34397981430006
H           -8.44900189490795        4.35701215431966       -0.43043410978673
H           -8.47533002932263        3.04375377768203        1.65853745363228
H           -7.13725948455819        0.97363468370621        1.83347736654468
H           -8.24694728453855       -0.05001745520212       -1.22096992340861
H          -10.59157285731112       -0.74518735416227       -1.17394329996896
