112
 energy: -173.692732503175 gnorm: 0.000067501332 xtb: 6.7.1 (edcfbbe)
N          -12.42390554589185       -5.24556743367727        0.30322121297542
C          -11.37855594586560       -4.77319656089246        0.24921457612349
C          -10.09607976320674       -4.18880020296266        0.18455466362163
C           -9.90495177767182       -3.00060385309926       -0.52391751129879
C           -8.65494782830121       -2.42062288951996       -0.57779406482062
C           -7.57237833658611       -3.00781586869798        0.08150620764046
C           -6.22944891622638       -2.45805739150909        0.06573562546783
N           -5.16150733892376       -3.21916410472265        0.15424550037229
C           -4.09674791011250       -2.38148264859881        0.09872937737718
C           -2.71479580634887       -2.72027255166611        0.11058149473124
C           -2.28653533030221       -4.05085997314982        0.17250843575303
C           -0.95081771891194       -4.35705601228023        0.14235390375522
C            0.00256834372132       -3.33331200185042        0.04501514835511
C            1.43666196873502       -3.65047333745982       -0.00399036731167
C            2.36835610951536       -2.87171680797937        0.68181056501143
C            3.71562259405529       -3.16095413968358        0.63139423815328
C            4.17945524536684       -4.24787455941452       -0.11085897160823
N            5.54539032314455       -4.54115983906225       -0.16777778151911
C            6.35158800433370       -4.34568073218270        0.96107258796776
C            5.86848975796978       -4.64236463847572        2.23572530162112
C            6.66636314330028       -4.44496071775640        3.34631736824975
C            7.95637517344381       -3.95841743749510        3.20703213019279
C            8.44240653341194       -3.66521145450044        1.94292804707873
C            7.64932014134794       -3.85190730182944        0.82700856339239
C            6.11310097119849       -5.01844142586706       -1.35567889532996
C            5.68378134600497       -4.53392378337116       -2.59148494070804
C            6.24654230613123       -5.01016350641101       -3.75998187550984
C            7.24933218379824       -5.96554230951763       -3.71834428948076
C            7.68292033752273       -6.44677981066532       -2.49338097012224
C            7.11950936783344       -5.98379352057998       -1.31987529695472
C            3.25160853711501       -5.03507068368169       -0.79444000500039
C            1.90598623168330       -4.73820220367089       -0.73966532176883
C           -0.42354793255322       -2.01667363830354       -0.00657223884835
C           -1.77799477445160       -1.66464123239428        0.03311190537060
C           -2.23199582639668       -0.28214140887075        0.01443710689953
C           -1.32598773039967        0.78331426798504        0.03752259422091
C           -1.72580077368533        2.10852558305755        0.05216499846559
C           -0.73506176442505        3.19138891228532        0.08009277397166
C            0.41477205583166        3.09438994244513        0.86344150935761
C            1.34074427049465        4.11517253598264        0.89913724834401
C            1.15493561839189        5.26787877016998        0.13412253509750
N            2.09540166756991        6.30097395566527        0.16005420866445
C            1.67263137384180        7.63476380595473        0.08757767736099
C            2.40813792201544        8.57230371982849       -0.63755651310127
C            1.99090910261373        9.88806887829807       -0.69926885823728
C            0.83421229965483       10.28946423162026       -0.05033030141424
C            0.09676383253772        9.36100477714956        0.66679854729094
C            0.51091893946149        8.04502127736443        0.74194841146892
C            3.46121380318897        6.00594762351432        0.25750346249918
C            3.99518575250667        4.89692094523393       -0.39916339091534
C            5.34271813889024        4.60897745280491       -0.29760834048297
C            6.18044657745178        5.42263349484077        0.44815834870386
C            5.65646428134901        6.52845392701018        1.09826463293509
C            4.30832205677959        6.81848692873161        1.01134672348467
C            0.00906702207550        5.36770063371969       -0.65683411033865
C           -0.92075223131538        4.34991682245044       -0.67372482915589
C           -3.09618264640182        2.39548473686971        0.05497680152940
C           -4.01611307417407        1.37928396660790        0.03591777428723
C           -3.61835694291555        0.03461730748252        0.00178981949805
C           -4.52992010872108       -1.05814642464814       -0.00685713289641
N           -5.90301036317163       -1.12399396723241       -0.04193119703526
C           -6.82061353793099       -0.05238896226720       -0.13749342322874
C           -6.93591457372464        0.65641134733299       -1.33006243140114
C           -7.84889238927617        1.69119529012586       -1.42389526098144
C           -8.64728760837860        2.01645142009873       -0.33828182886951
C           -8.53149354047465        1.30779318169902        0.84635284620381
C           -7.61949660108926        0.27184337957978        0.95225065491140
C           -7.76841233735709       -4.21296686043663        0.76656068277704
C           -9.01224009247633       -4.79970275031007        0.82290071600251
H          -10.73986398448776       -2.54238337596607       -1.03337679713758
H           -8.52273117009428       -1.51728911959841       -1.15103758408589
H           -3.03887186061792       -4.82199121516967        0.23999924886818
H           -0.62650899289691       -5.38511947075929        0.20710591400595
H            2.03095842678756       -2.03444008720780        1.27525554691167
H            4.42176259229036       -2.54313824329564        1.16710238152075
H            4.86612593302272       -5.02996853825320        2.34699573699265
H            6.28002989252960       -4.68154646538789        4.32724606991693
H            8.57820527954641       -3.80890679310054        4.07698187463815
H            9.44480801273363       -3.27982933861498        1.82435809881118
H            8.02818414312205       -3.61443860791745       -0.15656314978253
H            4.90969704968989       -3.78101270985771       -2.62687060730082
H            5.90542209593278       -4.62468429964556       -4.70998446799656
H            7.68939502349094       -6.33237453497079       -4.63356332659734
H            8.46044716747339       -7.19577282219764       -2.45076375934244
H            7.45322374876145       -6.36766782570928       -0.36663040792181
H            3.59550765215336       -5.88246348396485       -1.36971001393801
H            1.20724046738197       -5.35220785455556       -1.28885270317573
H            0.33060884373358       -1.25299209697034       -0.10826857420136
H           -0.26729545242721        0.58216568826685        0.03410966335329
H            0.56838125355396        2.22045824480768        1.47967214524842
H            2.21581244404933        4.03018739393167        1.52700750145107
H            3.30581634402325        8.26066712635435       -1.15171218814207
H            2.56954256721826       10.60329274433572       -1.26574721481365
H            0.50995927258792       11.31796105161088       -0.10351652478097
H           -0.80370556458307        9.66533798892082        1.18055561166846
H           -0.06036869277351        7.32560399401924        1.31063793342264
H            3.34715882031775        4.26656894104733       -0.99077432635523
H            5.74266977214966        3.74721514768824       -0.81217309796773
H            7.23374550645520        5.19699592732059        0.52138022106544
H            6.30059851907158        7.16621737610120        1.68621751064106
H            3.90144597249871        7.67589361583318        1.52763903843092
H           -0.14272116858565        6.24930519135107       -1.26253295819584
H           -1.79106464621861        4.43973117717078       -1.30734065875939
H           -3.42946184398142        3.42160101952615        0.10075561120680
H           -5.06634293927320        1.62051642055046        0.06584242397991
H           -6.30691143232722        0.39283744491874       -2.16814701729019
H           -7.93765269483315        2.24173772551372       -2.34821536410049
H           -9.35957740638449        2.82357700884898       -0.41651462846605
H           -9.15102483000625        1.56099480047745        1.69323710944365
H           -7.52067775722339       -0.28789538150819        1.87076305048425
H           -6.92032769119773       -4.67101551496572        1.25074316740109
H           -9.16011993916054       -5.72600941816652        1.35807073202385
