  68
       -109.55046227
 N         -0.3235214339        6.8572190738       -0.6076851416
 C         -0.6433872193        5.7557069358       -0.5002124488
 C         -1.0309705602        4.4149545736       -0.3725996883
 C         -0.5634005899        3.6428438978        0.7041822844
 C         -0.9339589059        2.3275906110        0.8235914141
 C         -1.7956231202        1.7447721499       -0.1212465804
 N         -2.1387467638        0.4034811664       -0.0043717306
 C         -1.2141897325       -0.6499659901        0.1826915338
 C          0.1855262162       -0.5866061530        0.0967042534
 C          0.9275752119        0.4691285213       -0.5028882195
 C          2.2932932534        0.4412639481       -0.5247179079
 C          3.0072219350       -0.6365374890        0.0274167990
 N          4.3937103931       -0.6374071787        0.0226117751
 C          5.2073239556       -1.7003016745       -0.3279126820
 C          4.8641665880       -2.9529328038       -0.8190243757
 C          5.8890959925       -3.8283540055       -1.1277722071
 C          7.2248725289       -3.4689470081       -0.9685655985
 C          7.5737623274       -2.2093911811       -0.5156250614
 C          6.5626801737       -1.3153386415       -0.1986837216
 C          6.5587449809        0.0500775176        0.2549207271
 C          7.5637249758        0.9492515099        0.5767379991
 C          7.2064115040        2.2090478093        1.0222229967
 C          5.8680024689        2.5651165762        1.1673294680
 C          4.8492854465        1.6842808003        0.8539478897
 C          5.2011587342        0.4299742302        0.3737974990
 C          2.2858153307       -1.7210199539        0.5671412170
 C          0.9237485399       -1.6993218165        0.5955617026
 N         -1.8577839068       -1.8205797584        0.3593206102
 C         -3.1479415246       -1.5712658991        0.2157855046
 C         -4.2190923703       -2.5112332652        0.2234261466
 C         -3.9657800680       -3.8800850743        0.3402584809
 C         -5.0021978076       -4.7864590381        0.2889957438
 C         -6.2987635971       -4.3233935666        0.1070783879
 C         -6.5594285236       -2.9703361225        0.0001129912
 C         -5.5352241056       -2.0197866094        0.0689653711
 C         -5.7796448270       -0.5846460808        0.0199502269
 C         -7.0749631379       -0.0693562280        0.0151866250
 C         -7.3295691254        1.2882080776        0.0298537875
 C         -6.2714049371        2.1929065275        0.0820564400
 C         -4.9807077260        1.7334502243        0.0768765958
 C         -4.6914511378        0.3506514282        0.0173919834
 C         -3.3864724248       -0.1724869371        0.0129911383
 C         -2.2649882533        2.5168395358       -1.1959484906
 C         -1.8868532501        3.8297019806       -1.3225878167
 H          0.0843459081        4.0987724188        1.4380644870
 H         -0.5803513973        1.7303441534        1.6505148468
 H          0.4144941584        1.2689182610       -1.0092091262
 H          2.8392186268        1.2299825657       -1.0209382920
 H          3.8337747196       -3.2324392294       -0.9745426821
 H          5.6470447069       -4.8096937158       -1.5068847421
 H          7.9966768127       -4.1814606584       -1.2171272524
 H          8.6094001050       -1.9223941345       -0.4160101071
 H          8.6013090776        0.6663158377        0.4864615164
 H          7.9733172771        2.9252078051        1.2759608723
 H          5.6190222119        3.5479346298        1.5383337942
 H          3.8161911934        1.9624224292        0.9942860455
 H          2.8275923128       -2.5453107740        1.0056519409
 H          0.3627843586       -2.5094182492        1.0319313289
 H         -2.9410060315       -4.1951781523        0.4605645670
 H         -4.8101246645       -5.8447828095        0.3793989652
 H         -7.1171411848       -5.0260796971        0.0493746971
 H         -7.5824948018       -2.6620426037       -0.1447052945
 H         -7.9191862812       -0.7398747537        0.0154600112
 H         -8.3480356172        1.6453895326        0.0222546663
 H         -6.4666673684        3.2536348568        0.1326021996
 H         -4.1697265203        2.4383306446        0.1475950205
 H         -2.9095301632        2.0593949147       -1.9322005465
 H         -2.2334351268        4.4211626738       -2.1568772532
