68
 energy: -109.679725942710 gnorm: 0.000051652715 xtb: 6.7.1 (edcfbbe)
N            0.31487469717047        6.58679631203938       -0.39671903228173
C           -0.10741781569597        5.52224715403952       -0.32630851582245
C           -0.62702797074092        4.21070016276749       -0.24208253773242
C           -0.31378807217978        3.40661096481511        0.85569827375555
C           -0.81988915161184        2.12523074612839        0.93387260488467
C           -1.64173316631056        1.63778787748794       -0.08007748966853
N           -2.11341917688084        0.31556724854416       -0.01364787345263
C           -1.30449980426130       -0.80381167569251        0.01492721862322
C            0.14933292106936       -0.76460455767330       -0.01859170569159
C            0.85466858165271        0.12524483461193       -0.82791266155650
C            2.23440479983116        0.13120531897394       -0.82465928620790
C            2.94073539496592       -0.75011791563919       -0.00876614255855
N            4.33932770548393       -0.71919649442070        0.01284692570321
C            5.18001854140944       -1.80759364047871       -0.12877516395562
C            4.87063744064936       -3.13778723645823       -0.37531069990824
C            5.91780358223153       -4.03040310044426       -0.50645999675727
C            7.24445072961793       -3.61572520332888       -0.40725305307423
C            7.55871175213300       -2.28928333144909       -0.18659071187717
C            6.52323930551567       -1.37330406911286       -0.05043737441500
C            6.48252529321524        0.04806304345282        0.15698143197031
C            7.46272502126465        1.01701339813437        0.33022690695833
C            7.07168486228164        2.32548467690468        0.53533208559431
C            5.72259768680821        2.67071322973535        0.58294389627990
C            4.72953845836280        1.72425236896154        0.41412547607451
C            5.11645456265333        0.41148410036541        0.18354160780281
C            2.24007674369654       -1.66166976556344        0.77978385067627
C            0.86121635772127       -1.67314844617598        0.76569163152539
N           -1.99849755974698       -1.91123518606767        0.05789462735687
C           -3.30687923752349       -1.53673951475682        0.05306203574560
C           -4.45403083117734       -2.37912331022924        0.04102339738186
C           -4.33195828151418       -3.77300873392715        0.02228174945820
C           -5.45077069769637       -4.56655575886190       -0.03288355741674
C           -6.71036761486200       -3.97124555174295       -0.07572524161520
C           -6.84249422845438       -2.60229574007640       -0.05008645909088
C           -5.72367727830327       -1.75713069743950        0.01857948446809
C           -5.83112828741800       -0.30948038244967        0.08616402709118
C           -7.07608231535834        0.33216981399541        0.16298625757606
C           -7.18827232370982        1.69836376547641        0.27195554211896
C           -6.04553828230041        2.49020942218501        0.33004851554520
C           -4.80726805413137        1.90169430376148        0.25155035022624
C           -4.67080097679369        0.51318776660511        0.10787827342628
C           -3.41259636438075       -0.14817138708760        0.02146698894620
C           -1.95456978387142        2.44055659227166       -1.17737536183025
C           -1.45251898478708        3.72269643469989       -1.25853265444690
H            0.32131371634606        3.79160318604547        1.63909747665656
H           -0.58389043206240        1.49462568744262        1.77752159299042
H            0.32774251100250        0.79615402645726       -1.48909318505809
H            2.77372763903802        0.80822182846636       -1.46977625508108
H            3.84726999958720       -3.46684077797282       -0.47377214108691
H            5.70255302640007       -5.07205951222340       -0.69537614906600
H            8.03497113620029       -4.34403391936067       -0.51398237759485
H            8.58701107405524       -1.96537656264585       -0.12660227851206
H            8.50808558321983        0.74747064302655        0.30966142957817
H            7.81830421419709        3.09442844231721        0.66945919352917
H            5.44621950010976        3.70025999765347        0.75881787160419
H            3.68722682732079        2.00057725007148        0.46971771455638
H            2.78298557171649       -2.34528072615430        1.41460062374110
H            0.31187921803667       -2.37513972917823        1.37367290038810
H           -3.33832627345974       -4.19408402257340        0.04388024773345
H           -5.35999718083823       -5.64264380604566       -0.04952490892072
H           -7.59359518592242       -4.59137941762664       -0.12948390252248
H           -7.83684154191520       -2.18712375448382       -0.08957369095195
H           -7.98138111971898       -0.25247655490663        0.14807199306376
H           -8.16494425973852        2.15599729988396        0.32842564258007
H           -6.12989392859423        3.56104757342469        0.44234048639965
H           -3.92501007234947        2.51767548368375        0.32002230900235
H           -2.59020611838712        2.05058437098099       -1.95862362441391
H           -1.68844410093635        4.34922488140265       -2.10540022246969
