68
 energy: -109.679698881095 gnorm: 0.000043656151 xtb: 6.7.1 (edcfbbe)
N            0.20223192003638        6.63586722603666       -0.25970511390634
C           -0.21154595304611        5.56692738094120       -0.20736424825492
C           -0.71953849361828        4.24967216671973       -0.14477290793616
C           -0.38199297761326        3.42361816440988        0.92922837214586
C           -0.87400634583904        2.13560866103086        0.98456645786516
C           -1.70622217273281        1.66347205449299       -0.02816529864512
N           -2.15981924687707        0.33413204236683        0.01344447888389
C           -1.33249766455752       -0.77199344355055        0.01112173628557
C            0.12033982969994       -0.69974762698422       -0.03570063551250
C            0.79171843772004        0.19817241804800       -0.86459039472526
C            2.17061105951215        0.24181560399548       -0.87776222830147
C            2.90976591495800       -0.60647614752451       -0.05566717722910
N            4.30684741385832       -0.53483975376725       -0.04841259263332
C            5.17805942597635       -1.60171728592728       -0.17004008552465
C            4.90657537253501       -2.94637939267364       -0.38017359452801
C            5.97873739661143       -3.81116101168300       -0.49551968889761
C            7.29323408531447       -3.35570977015137       -0.41636625895846
C            7.56968903745932       -2.01516221263436       -0.23380574181059
C            6.50851961545806       -1.12667451796637       -0.11440327510456
C            6.42798416811980        0.29801351666942        0.05536841513241
C            7.38138466942436        1.29897979919451        0.19240172980095
C            6.95460311780239        2.60072037987927        0.36660302246574
C            5.59659720946103        2.90766367065984        0.42095471717533
C            4.62986870859997        1.92868087572271        0.28828243618424
C            5.05219820102638        0.62210821037194        0.08632706067820
C            2.24293236124281       -1.52487381954696        0.75402677428844
C            0.86467432852648       -1.57679229698432        0.75340425225779
N           -2.00671861648501       -1.89155088827395        0.03404752583470
C           -3.32170449208314       -1.53887795475169        0.04659004342126
C           -4.45503897568081       -2.39945968191375        0.02082661287842
C           -4.31061256900661       -3.79040496360453       -0.03082651029703
C           -5.41669435658211       -4.60057915670036       -0.09971426764297
C           -6.68601378253286       -4.02515561594396       -0.12310024069087
C           -6.84013283951701       -2.65950557393511       -0.06506478248308
C           -5.73483739078029       -1.79795171857262        0.01783162145548
C           -5.86575678896098       -0.35424048119165        0.11933614483684
C           -7.12051573158146        0.26541782420733        0.21541157123446
C           -7.25382658213766        1.62639090012356        0.35957171264833
C           -6.12367526061895        2.43483810404922        0.43390625166670
C           -4.87651341678914        1.86840192151250        0.33604230409379
C           -4.71889986777346        0.48644603007182        0.15608796804549
C           -3.45072667961291       -0.15202086306010        0.04721196563381
C           -2.04433124441796        2.48859162747562       -1.10100515229034
C           -1.55622911183698        3.77732213262156       -1.15942583752939
H            0.26126004477961        3.79654286275642        1.71183475402615
H           -0.61857707724568        1.48761785026231        1.80915696383302
H            0.23795319280243        0.84561979868715       -1.52748113805818
H            2.68386926067854        0.92278433746024       -1.53972342762508
H            3.89294410326065       -3.30811983349008       -0.46315094362848
H            5.79287949883112       -4.86327666445924       -0.65543489666458
H            8.10397959303015       -4.06342255661133       -0.50891866604374
H            8.58830710996549       -1.65963031254264       -0.18984825902230
H            8.43382255428040        1.05900853753593        0.16745370267328
H            7.67965896269894        3.39444460750075        0.47151330349406
H            5.29190531795639        3.93298325760416        0.57318060576658
H            3.58088750335339        2.17665209875094        0.34976799370590
H            2.81099220423012       -2.18201097661403        1.39472147653469
H            0.34217332863842       -2.28547890634854        1.37719562424826
H           -3.31026352451381       -4.19580615878697       -0.02307110952090
H           -5.30848019800691       -5.67435571243882       -0.14185033711927
H           -7.55929334938210       -4.65825126628274       -0.18719684687495
H           -7.84125529075825       -2.25977884512615       -0.09001008358873
H           -8.01655527941372       -0.33293328992069        0.18883675138504
H           -8.23740842603093        2.06684413118256        0.43056918324303
H           -6.22489955620834        3.50088974585995        0.57420791119978
H           -4.00361312018975        2.49629587229540        0.41649898950244
H           -2.68748970715377        2.11050402531338       -1.88189930959188
H           -1.81152185820861        4.42128986416537       -1.98735738385581
