  68
       -109.63280083
 N          0.3667536616        6.5571844164       -0.4003307559
 C         -0.0696514247        5.4990137339       -0.3338525503
 C         -0.6042547412        4.1938199115       -0.2444745037
 C         -0.2779107657        3.3821723094        0.8434597656
 C         -0.7950840500        2.1062850892        0.9267780165
 C         -1.6407077496        1.6302110270       -0.0733519777
 N         -2.1148830269        0.3128704710       -0.0070723374
 C         -1.3066170442       -0.8086801313        0.0189989549
 C          0.1455921287       -0.7687420416       -0.0202032889
 C          0.8488166837        0.1366327029       -0.8138535814
 C          2.2279164837        0.1436547032       -0.8124463610
 C          2.9363537338       -0.7516586626       -0.0138413337
 N          4.3326109531       -0.7168977672        0.0094059214
 C          5.1770395372       -1.8030114303       -0.1283134498
 C          4.8732881992       -3.1337428451       -0.3768178955
 C          5.9241894691       -4.0225451610       -0.5013241682
 C          7.2483672369       -3.6041486036       -0.3921831705
 C          7.5572166638       -2.2765595966       -0.1728884683
 C          6.5180536145       -1.3644788456       -0.0446698124
 C          6.4724325041        0.0569984514        0.1582350548
 C          7.4496682665        1.0282974737        0.3305316105
 C          7.0548669365        2.3360363075        0.5305903703
 C          5.7052324310        2.6773800732        0.5765913636
 C          4.7149748808        1.7281137410        0.4086219227
 C          5.1057146033        0.4164906463        0.1804408470
 C          2.2371777459       -1.6803111368        0.7560972745
 C          0.8589869626       -1.6930027231        0.7435871291
 N         -2.0022163007       -1.9132291533        0.0608322820
 C         -3.3092086111       -1.5378171678        0.0565231720
 C         -4.4570353321       -2.3782190947        0.0439876137
 C         -4.3346585393       -3.7715206306        0.0293960275
 C         -5.4538624267       -4.5639143456       -0.0263896895
 C         -6.7126846576       -3.9678837357       -0.0730633144
 C         -6.8444890072       -2.5990681221       -0.0513587815
 C         -5.7253847459       -1.7548437587        0.0165591560
 C         -5.8314361061       -0.3074928311        0.0804026920
 C         -7.0754745884        0.3359237794        0.1477885264
 C         -7.1862559956        1.7016050761        0.2583491524
 C         -6.0431734553        2.4914276260        0.3287315526
 C         -4.8054619882        1.9017061967        0.2575410064
 C         -4.6705445078        0.5138117426        0.1094584997
 C         -3.4139311245       -0.1491180210        0.0254412693
 C         -1.9678515614        2.4417303868       -1.1601173519
 C         -1.4550521759        3.7187271959       -1.2452995111
 H          0.3759389137        3.7591640626        1.6154939349
 H         -0.5488654130        1.4683088654        1.7622539701
 H          0.3209864444        0.8183841324       -1.4635067901
 H          2.7661185474        0.8309797858       -1.4474344895
 H          3.8518381183       -3.4658532792       -0.4842855418
 H          5.7133117526       -5.0644319463       -0.6918075408
 H          8.0410863977       -4.3303020499       -0.4925604424
 H          8.5833878430       -1.9481268703       -0.1071623251
 H          8.4951767932        0.7604902582        0.3123191972
 H          7.7985623305        3.1073998496        0.6639962270
 H          5.4255375770        3.7060148846        0.7508422679
 H          3.6716896597        2.0014755693        0.4647095302
 H          2.7826516064       -2.3740359908        1.3775483285
 H          0.3096094589       -2.4075763585        1.3361619593
 H         -3.3410218729       -4.1910418856        0.0543397158
 H         -5.3650308356       -5.6399675590       -0.0405858295
 H         -7.5961287228       -4.5874105929       -0.1269676178
 H         -7.8387229105       -2.1836466796       -0.0928045309
 H         -7.9816112132       -0.2472510869        0.1246723848
 H         -8.1621767396        2.1609637676        0.3071768619
 H         -6.1271744511        3.5616215865        0.4444372413
 H         -3.9228127316        2.5166120422        0.3378744980
 H         -2.6220844192        2.0599119899       -1.9300739321
 H         -1.7011037205        4.3522024755       -2.0843863013
