  96
       -157.17220700
 C          9.8617106338        2.9075022969        0.0798028862
 C          8.8751719223        3.2708243531       -0.8213129088
 C          7.6906828028        2.5598554405       -0.8779890574
 C          7.4823499473        1.4669929602       -0.0413409530
 C          6.2149995343        0.7183378623       -0.0985928574
 C          5.0271134613        1.4022744152       -0.0405228612
 C          3.7960793833        0.7188842702       -0.0321002214
 N          2.6464276404        1.4056383380        0.0183166992
 C          1.5184233787        0.7192895945        0.0385375432
 C          0.2642723038        1.4351324274        0.0752893194
 C          0.2658054383        2.8330985210        0.0284864691
 C         -0.9089202061        3.5434525645        0.0271075452
 C         -2.1256121287        2.8580703302        0.0977019361
 N         -3.3431209235        3.5661368275        0.0784712802
 C         -3.6350686554        4.5053772693        1.0718310878
 C         -2.7904727988        4.7305023056        2.1518780098
 C         -3.1076884793        5.6732926884        3.1177262152
 C         -4.2795727876        6.3967915390        3.0290596920
 C         -5.1524836855        6.1559367914        1.9785981233
 C         -4.8415820307        5.2154501703        1.0141726335
 O         -5.7722544654        5.0070498759        0.0274383023
 C         -5.4934529932        4.0474583510       -0.9132675098
 C         -6.4548163262        3.8279003131       -1.8823169776
 C         -6.2350536332        2.9025395034       -2.8916199429
 C         -5.0374480914        2.2189296459       -2.9346507882
 C         -4.0709161796        2.4342701391       -1.9642969276
 C         -4.2905953458        3.3278728096       -0.9227316018
 C         -2.1366447258        1.4750401679        0.1692054665
 C         -0.9549932035        0.7322446741        0.1397616296
 C         -0.9547444360       -0.7235011099        0.1381809174
 C         -2.1354704609       -1.4672011277        0.1833012387
 C         -2.1249129642       -2.8498289270        0.1040461052
 N         -3.3422282941       -3.5584641106        0.1001138348
 C         -4.3024765911       -3.3204934443       -0.8892472386
 C         -4.1043922321       -2.4131944674       -1.9233345932
 C         -5.0837175027       -2.1985940312       -2.8809215249
 C         -6.2730413235       -2.8964671189       -2.8329460145
 C         -6.4713811749       -3.8348573900       -1.8314537915
 C         -5.4971624767       -4.0534678277       -0.8749502426
 O         -5.7557890139       -5.0260626390        0.0579825033
 C         -4.8099232989       -5.2394139995        1.0290215484
 C         -5.0974955635       -6.1987910257        1.9818004642
 C         -4.2086265596       -6.4458548487        3.0174788052
 C         -3.0449423914       -5.7093138008        3.1033539787
 C         -2.7508875240       -4.7476736665        2.1486006651
 C         -3.6108964285       -4.5162056809        1.0822534838
 C         -0.9089809977       -3.5338187378        0.0092410026
 C          0.2652965218       -2.8229790657       -0.0014858115
 C          0.2639535847       -1.4253101492        0.0552466969
 C          1.5178375918       -0.7089779916        0.0175310654
 N          2.6448862995       -1.3948180885       -0.0390056103
 C          3.7949222595       -0.7075659833       -0.0693981633
 C          5.0235443451       -1.3905872320       -0.1479648716
 C          6.2124142508       -0.7063743426       -0.1756018675
 C          7.4716265397       -1.4559541932       -0.3249152807
 C          7.7361720043       -2.5526926927        0.4906065240
 C          8.9108502847       -3.2674012805        0.3459670927
 C          9.8311829216       -2.9036064811       -0.6224703052
 C          9.5689864263       -1.8232110528       -1.4484512083
 C          8.3992919369       -1.1021145057       -1.3012754045
 C          8.4765189423        1.1139897578        0.8675361795
 C          9.6560549314        1.8315875048        0.9273195731
 H         10.7870209695        3.4626899451        0.1231585760
 H          9.0296830501        4.1106318976       -1.4831162372
 H          6.9253186470        2.8368325575       -1.5889396574
 H          5.0106383373        2.4797586550        0.0253332760
 H          1.2198961040        3.3328290190       -0.0267089510
 H         -0.9059862620        4.6210607163       -0.0386909559
 H         -1.8801266748        4.1594842273        2.2449753317
 H         -2.4288918825        5.8316598729        3.9415625783
 H         -4.5280057099        7.1357941605        3.7742508734
 H         -6.0873936993        6.6860493778        1.8914541375
 H         -7.3685244546        4.3981815413       -1.8317312100
 H         -6.9932820075        2.7339922788       -3.6397508222
 H         -4.8392934957        1.5126992508       -3.7259770955
 H         -3.1320588103        1.9073699992       -2.0279883976
 H         -3.0945917289        0.9852418791        0.2413953795
 H         -3.0920482568       -0.9784414943        0.2772099006
 H         -3.1723079024       -1.8749409313       -1.9920198708
 H         -4.9022083119       -1.4815167399       -3.6665154753
 H         -7.0406924293       -2.7287724426       -3.5715917964
 H         -7.3775371276       -4.4167499672       -1.7767744111
 H         -6.0270461992       -6.7387253278        1.8974214095
 H         -4.4389098533       -7.2000513575        3.7532339297
 H         -2.3539430404       -5.8721067174        3.9161026461
 H         -1.8462293835       -4.1674061005        2.2400481626
 H         -0.9065107757       -4.6109480216       -0.0638706418
 H          1.2188700214       -3.3215711478       -0.0732224061
 H          5.0027242384       -2.4679946402       -0.2136652805
 H          7.0229863427       -2.8301733227        1.2536988705
 H          9.1090987803       -4.1109535097        0.9911153980
 H         10.7487861762       -3.4618778577       -0.7348359703
 H         10.2794127596       -1.5405310953       -2.2113679149
 H          8.1942779355       -0.2674878119       -1.9554250915
 H          8.3161316283        0.2824895344        1.5380230566
 H         10.4185359474        1.5495618966        1.6384582046
