  88
  -145.465671870000       0.978159207491992      !
 O          3.8589211273       -0.9602304149       -1.7449895402
 C          3.5706878095       -1.2509079572       -0.5725312970
 C          2.1898802585       -1.5279026930       -0.1888098150
 C          1.7126731997       -1.5777950367        1.1294315539
 C          0.3834708924       -1.8349822607        1.3851477530
 C         -0.5093330067       -2.0645685480        0.3347452717
 N         -1.8859242971       -2.3236240450        0.5531098907
 C         -2.7341327821       -1.3661028788        1.0974073707
 C         -2.2607950146       -0.2169673506        1.7238425399
 C         -3.1376566303        0.7145255877        2.2517583215
 C         -4.5051124772        0.5279190437        2.1597168459
 C         -4.9962872799       -0.6010536272        1.5267582564
 C         -4.1257168797       -1.5404736640        1.0003788714
 O         -4.6858478567       -2.6146560569        0.3701507571
 C         -3.8440052486       -3.5961053819       -0.0724261764
 C         -4.4211311310       -4.7301383088       -0.6188092997
 C         -3.6232767869       -5.7710621350       -1.0643792547
 C         -2.2466169291       -5.6802160679       -0.9428937610
 C         -1.6630457644       -4.5486203693       -0.4035094650
 C         -2.4475105084       -3.4768519056        0.0206003277
 C         -0.0352030572       -2.0462166414       -0.9807885526
 C          1.2796962203       -1.7618585513       -1.2360561333
 C          4.6520573633       -1.4749310691        0.4180537779
 C          4.6503803808       -2.5869660745        1.2519263467
 C          5.7186929196       -2.8322734138        2.0962729502
 C          6.8030138577       -1.9713502626        2.1103061516
 C          6.8171374808       -0.8644022959        1.2791475422
 C          5.7528729395       -0.6040710875        0.4284603841
 C          5.7542122681        0.5828571294       -0.4385061297
 C          6.8118427732        0.8335830167       -1.3006250628
 C          6.8017229656        1.9438781116       -2.1274381392
 C          5.7293439197        2.8192426319       -2.0960703364
 C          4.6672671399        2.5827010391       -1.2412856341
 C          4.6638682755        1.4661162789       -0.4136583472
 C          3.5848150656        1.2472886340        0.5812838224
 O          3.8751039532        0.9626183397        1.7545107374
 C          2.2038600000        1.5202996757        0.1962994454
 C          1.2906044244        1.7470762759        1.2426322686
 C         -0.0235798488        2.0325658194        0.9854641519
 C         -0.4946902663        2.0568567658       -0.3310411874
 N         -1.8696507367        2.3234662958       -0.5513854002
 C         -2.4235115951        3.4808405567       -0.0199129032
 C         -1.6314236019        4.5467018623        0.4046853551
 C         -2.2070436712        5.6823691108        0.9433177036
 C         -3.5831179025        5.7829027872        1.0638768409
 C         -4.3882997060        4.7479412351        0.6179477806
 C         -3.8191085495        3.6100348520        0.0716375001
 O         -4.6673449995        2.6349257619       -0.3725696273
 C         -4.1140232099        1.5571983217       -1.0029893122
 C         -4.9905304236        0.6250087566       -1.5324070629
 C         -4.5063225202       -0.5067933302       -2.1657111395
 C         -3.1400768543       -0.7036418675       -2.2549734980
 C         -2.2572339242        0.2206084536       -1.7242529720
 C         -2.7235726311        1.3724895321       -1.0974189903
 C          0.4003502043        1.8316402296       -1.3804735964
 C          1.7293938770        1.5759626963       -1.1228142943
 H          2.3878555371       -1.3765711563        1.9464453224
 H          0.0290986783       -1.8844117658        2.4046465216
 H         -1.1985069891       -0.0516364695        1.7827158618
 H         -2.7483205893        1.5950455102        2.7407250456
 H         -5.1872352436        1.2561518197        2.5683529101
 H         -6.0553578877       -0.7733287490        1.4239895137
 H         -5.4963752902       -4.7775058220       -0.6821109209
 H         -4.0780746453       -6.6504557711       -1.4918491111
 H         -1.6182860451       -6.4946630815       -1.2680990284
 H         -0.5913900944       -4.4867092825       -0.3034661740
 H         -0.7149841524       -2.2628920406       -1.7910388734
 H          1.6556031512       -1.7258188701       -2.2471090027
 H          3.8196615495       -3.2767310155        1.2201860430
 H          5.7069940503       -3.7007035182        2.7391978353
 H          7.6398170713       -2.1641319728        2.7657538725
 H          7.6555792443       -0.1833536947        1.2963085435
 H          7.6408859719        0.1415900657       -1.3308255265
 H          7.6312352578        2.1266137728       -2.7949640191
 H          5.7205490345        3.6900517036       -2.7358234090
 H          3.8447640408        3.2817267283       -1.1976341922
 H          1.6636871673        1.7048451182        2.2544475525
 H         -0.7050531154        2.2462380710        1.7950271853
 H         -0.5602439788        4.4764756596        0.3058171227
 H         -1.5731136475        6.4923840827        1.2686787649
 H         -4.0315359708        6.6651882755        1.4916136181
 H         -5.4631643726        4.8031095230        0.6806723404
 H         -6.0484281489        0.8054686129       -1.4319958237
 H         -5.1930697543       -1.2291479858       -2.5770968498
 H         -2.7565423813       -1.5863520522       -2.7445399556
 H         -1.1959164895        0.0479897930       -1.7813606528
 H          0.0478139786        1.8841749334       -2.4004810287
 H          2.4064459310        1.3793125274       -1.9394150817
  88
  -145.462079060000       2.184079250800780E-002 !
 O         -1.1516958234        0.6643262922        1.9875361844
 C         -0.2068974787        0.0314374897        1.4922318190
 C         -0.2639778954       -1.4195825464        1.3156384639
 C         -1.5181586056       -2.0322973545        1.1726488303
 C         -1.6162885722       -3.3854475733        0.9557256059
 C         -0.4614515982       -4.1658632361        0.9065462855
 N         -0.5521944027       -5.5571808019        0.6449580801
 C         -0.9623118900       -6.0063629854       -0.5996746313
 C         -1.3117025871       -5.1290472044       -1.6248998387
 C         -1.7119838377       -5.6155042208       -2.8553623284
 C         -1.7682494845       -6.9796314265       -3.0912752776
 C         -1.4094594799       -7.8658910583       -2.0892983141
 C         -1.0051776152       -7.3890185213       -0.8535196349
 O         -0.6435623628       -8.3135174873        0.0876518430
 C         -0.2556690244       -7.8532857423        1.3142756097
 C          0.0876321088       -8.7961391734        2.2687067238
 C          0.4687560476       -8.3932319672        3.5379363289
 C          0.4917557470       -7.0446087224        3.8535972905
 C          0.1529507081       -6.0959734277        2.9067941853
 C         -0.2105186066       -6.4801000133        1.6167229424
 C          0.7855731587       -3.5824140406        1.1235188538
 C          0.8838593610       -2.2260217902        1.3307948098
 C          1.0569148951        0.7414300887        1.1739447327
 C          1.3871877830        1.8200345791        1.9961930908
 C          2.5176129101        2.5803631166        1.7741029684
 C          3.3460976412        2.2742094969        0.7080223294
 C          3.0211659691        1.2197638649       -0.1292843695
 C          1.8825332214        0.4486645102        0.0753468149
 C          1.5921807248       -0.6312300167       -0.8895669709
 C          2.6176820694       -1.5106629762       -1.2182156172
 C          2.4185781459       -2.5663769608       -2.0926128208
 C          1.1687804152       -2.7614591464       -2.6551292211
 C          0.1414443139       -1.8931849829       -2.3450770917
 C          0.3301443308       -0.8150972518       -1.4788648541
 C         -0.8661295323        0.0133778109       -1.1854298251
 O         -1.9850831700       -0.5212171001       -1.1697268498
 C         -0.7047703291        1.4596300677       -1.0357518656
 C         -1.6902325464        2.1785648629       -0.3423241709
 C         -1.5611613135        3.5318806080       -0.1439563093
 C         -0.4565309044        4.2068458749       -0.6626183374
 N         -0.3074859695        5.6003667994       -0.4399520631
 C         -0.0514314958        6.0780422206        0.8343729692
 C          0.0846186047        5.2262056719        1.9290770167
 C          0.3448287248        5.7396015781        3.1858705179
 C          0.4781336310        7.1054213489        3.3770579132
 C          0.3610468597        7.9656668821        2.2979224043
 C          0.1029850111        7.4615689610        1.0341507769
 O          0.0178130525        8.3591429926        0.0053949996
 C         -0.2471025399        7.8713796068       -1.2432636010
 C         -0.3527339874        8.7882696551       -2.2756735897
 C         -0.6396581711        8.3579809399       -3.5606476046
 C         -0.8332848581        7.0086937102       -3.8071177793
 C         -0.7289116145        6.0857856380       -2.7831368851
 C         -0.4197976745        6.4966435427       -1.4872530757
 C          0.4945197558        3.5179117091       -1.4128702788
 C          0.3705369858        2.1606371255       -1.6015768494
 H         -2.3976045437       -1.4113777940        1.2081076692
 H         -2.5800458003       -3.8540667067        0.8215188170
 H         -1.2615398189       -4.0674091256       -1.4511302142
 H         -1.9810681207       -4.9194612484       -3.6344328950
 H         -2.0834142810       -7.3566653795       -4.0511623855
 H         -1.4319069241       -8.9324935572       -2.2449841380
 H          0.0443945294       -9.8387288573        1.9976847235
 H          0.7361737917       -9.1320743681        4.2763023839
 H          0.7718254542       -6.7244515556        4.8450421701
 H          0.1600350523       -5.0480318550        3.1581405318
 H          1.6704212632       -4.2028480807        1.1145385658
 H          1.8487415296       -1.7850950018        1.5261920249
 H          0.7314873347        2.0364944321        2.8266286015
 H          2.7520317043        3.4087927277        2.4271763370
 H          4.2356333433        2.8580940085        0.5207805949
 H          3.6506037243        1.0061627168       -0.9817857975
 H          3.5853222002       -1.3821470027       -0.7537660019
 H          3.2338468888       -3.2362447033       -2.3248371596
 H          0.9964601110       -3.5875847687       -3.3301042100
 H         -0.8394242615       -2.0234573792       -2.7778544735
 H         -2.5340767068        1.6383254994        0.0529681729
 H         -2.3077500907        4.0822489556        0.4093672018
 H         -0.0094433565        4.1631193455        1.7845562447
 H          0.4436637912        5.0637265515        4.0208337122
 H          0.6771579948        7.5037993663        4.3592564884
 H          0.4692958598        9.0323011936        2.4124887760
 H         -0.2112123314        9.8329401978       -2.0496461871
 H         -0.7195288402        9.0766735659       -4.3604311747
 H         -1.0721008410        6.6680508215       -4.8024895146
 H         -0.8928437648        5.0381260906       -2.9746792674
 H          1.3307755976        4.0576149647       -1.8340153867
 H          1.0947918446        1.6382249255       -2.2066690465
