  88
  -144.939051054100       0.953281942843313      !
 O         -0.5205070202        1.6605261792        1.6400481782
 C          0.0566534438        1.3913965822        0.5756358418
 C          1.4968090137        1.1396366598        0.5259225828
 C          2.1366772258        0.6564893999        1.6774312113
 C          3.4781189511        0.3598792096        1.6613942851
 C          4.2209918224        0.5681973066        0.4995599095
 N          5.5978578525        0.2285316154        0.4635825838
 C          5.9895671196       -1.0986132015        0.5293249500
 C          5.0676516414       -2.1374192032        0.6467877384
 C          5.4970591129       -3.4500968002        0.7050131344
 C          6.8472040565       -3.7549898396        0.6432665423
 C          7.7764963967       -2.7366895335        0.5105093547
 C          7.3568317739       -1.4183037710        0.4493475020
 O          8.3208643624       -0.4598140748        0.2970111961
 C          7.9177779951        0.8448194224        0.2487081466
 C          8.9013873699        1.8106549538        0.1166424955
 C          8.5580531848        3.1521224641        0.0831757929
 C          7.2287278082        3.5249752929        0.1964466918
 C          6.2396374289        2.5679134238        0.3263185400
 C          6.5625715917        1.2116252147        0.3382687999
 C          3.6146076302        1.1196954756       -0.6276972858
 C          2.2693951140        1.4071701872       -0.6140953404
 C         -0.7059486178        1.4356311379       -0.6968024773
 C         -1.7467877600        2.3633003380       -0.7649488243
 C         -2.5504887346        2.4691272288       -1.8821551115
 C         -2.3274628688        1.6339851378       -2.9635625594
 C         -1.3117181779        0.6942214902       -2.9033487719
 C         -0.4979903584        0.5689528030       -1.7830329850
 C          0.5351388682       -0.4865753882       -1.7893269610
 C          1.3652027307       -0.5855778686       -2.9002985015
 C          2.3765419508       -1.5294636553       -2.9711325541
 C          2.5763872299       -2.3977800623       -1.9116210586
 C          1.7564909471       -2.3177269019       -0.8040049753
 C          0.7226713613       -1.3833517269       -0.7242266007
 C         -0.0535404033       -1.3638600047        0.5409459451
 O          0.5131822599       -1.6558870527        1.6047321886
 C         -1.4934272733       -1.1119921057        0.4828577584
 C         -2.1443990496       -0.6576981789        1.6398788315
 C         -3.4879194041       -0.3711981915        1.6213447591
 C         -4.2219860231       -0.5624399903        0.4511441246
 N         -5.6048742620       -0.2455635661        0.4210662293
 C         -6.0189422685        1.0726719728        0.5129614925
 C         -5.1124785407        2.1259099318        0.6203179041
 C         -5.5632820901        3.4298924673        0.7052901033
 C         -6.9197993863        3.7110965768        0.6813832358
 C         -7.8343470802        2.6780816969        0.5599422641
 C         -7.3932693033        1.3683247776        0.4715309250
 O         -8.3432241832        0.3937775158        0.3334178739
 C         -7.9174205181       -0.9023536757        0.2561076823
 C         -8.8862645551       -1.8847131350        0.1376725824
 C         -8.5191863853       -3.2188610295        0.0749422281
 C         -7.1804686853       -3.5679722367        0.1440157682
 C         -6.2060454463       -2.5943536507        0.2613024074
 C         -6.5537708390       -1.2449493954        0.3044961608
 C         -3.6030885421       -1.0789672375       -0.6855929293
 C         -2.2552325794       -1.3550263458       -0.6697226781
 H          1.5442894996        0.4971448707        2.5628179578
 H          3.9662701670       -0.0347997029        2.5402459765
 H          4.0161707608       -1.9080260180        0.6862126076
 H          4.7672848160       -4.2390427669        0.7989644827
 H          7.1798220665       -4.7796341079        0.6915996913
 H          8.8331266081       -2.9418324276        0.4486074689
 H          9.9283087873        1.4898936689        0.0469269132
 H          9.3283540303        3.8993409098       -0.0211600889
 H          6.9556251137        4.5686414898        0.1875929108
 H          5.2073359654        2.8607723548        0.4262887786
 H          4.2078109203        1.3060178795       -1.5116480933
 H          1.8122152104        1.8600002880       -1.4798467708
 H         -1.8982382973        3.0102192907        0.0865085655
 H         -3.3481723246        3.1975854661       -1.9104765387
 H         -2.9461913312        1.7045382004       -3.8464281836
 H         -1.1635762268        0.0194737860       -3.7348206721
 H          1.2345462993        0.1136290165       -3.7142984107
 H          3.0088154724       -1.5787489426       -3.8458411989
 H          3.3687745571       -3.1316142006       -1.9487538985
 H          1.8910238939       -2.9897453145        0.0306581071
 H         -1.5591094628       -0.5136276079        2.5325530969
 H         -3.9852491015        0.0002810037        2.5051622786
 H         -4.0566767423        1.9136299655        0.6306243061
 H         -4.8456493633        4.2307801942        0.7908533903
 H         -7.2691411943        4.7289486775        0.7518614995
 H         -8.8957467012        2.8651578930        0.5285512535
 H         -9.9205738503       -1.5825166417        0.1011367117
 H         -9.2781668787       -3.9789907543       -0.0183507808
 H         -6.8883264544       -4.6059544249        0.1111305642
 H         -5.1662097363       -2.8690191336        0.3280356825
 H         -4.1890456921       -1.2499654066       -1.5774339933
 H         -1.7880072296       -1.7808959488       -1.5437545584
  88
  -144.936201125300       4.671805715668665E-002 !
 O          0.7510394287       -0.7558747676       -4.2098570432
 C          1.1139491741        0.2911221306       -3.6492107885
 C          1.4513643070        0.3004705679       -2.2291187538
 C          1.5874246714        1.4516932914       -1.4390871419
 C          1.8965419770        1.3512723492       -0.1001782794
 C          2.0936917819        0.1000128018        0.4902753918
 N          2.4039875533       -0.0485637579        1.8655709885
 C          1.5027276841        0.3072301594        2.8624187708
 C          0.3765965255        1.0850276539        2.6097494284
 C         -0.4987591866        1.4165554758        3.6291130241
 C         -0.2781055802        0.9736136553        4.9207568056
 C          0.8280577446        0.1859322537        5.1898836584
 C          1.7115913227       -0.1460640101        4.1766586186
 O          2.7652105581       -0.9460070497        4.5154500602
 C          3.6961297983       -1.2061973896        3.5492686841
 C          4.8145852345       -1.9321485328        3.9230224209
 C          5.8059692073       -2.2090753407        2.9961481507
 C          5.6822447119       -1.7397513110        1.6989853616
 C          4.5656509008       -1.0190483363        1.3171411113
 C          3.5419152646       -0.7580630551        2.2269728105
 C          1.9893486733       -1.0508195297       -0.2974191587
 C          1.6535504476       -0.9523294974       -1.6212471068
 C          1.3608011981        1.5113587002       -4.4559895994
 C          2.5165930434        2.2657640404       -4.2917156827
 C          2.7770233425        3.3403879001       -5.1234296827
 C          1.8872371811        3.6673996319       -6.1326280844
 C          0.7363125511        2.9185275081       -6.3084716222
 C          0.4604218774        1.8394884034       -5.4816349154
 C         -0.7719287148        1.0564541086       -5.6507521323
 C         -1.1001052145        0.5019040711       -6.8793567277
 C         -2.2534318137       -0.2487381504       -7.0305237958
 C         -3.0944296921       -0.4490798589       -5.9489371979
 C         -2.7806850868        0.0979103837       -4.7172790084
 C         -1.6206460023        0.8456358012       -4.5530960993
 C         -1.3163838310        1.5246112600       -3.2691303108
 O         -0.9761252748        2.7187585861       -3.2675531889
 C         -1.5701800309        0.8162532322       -2.0186898740
 C         -1.7126213178        1.6072497857       -0.8635662088
 C         -1.9737704459        1.0398629768        0.3548726963
 C         -2.0568122107       -0.3503979338        0.4813639999
 N         -2.2953386303       -0.8984143293        1.7670279086
 C         -3.4052667706       -0.4714826021        2.4843345856
 C         -4.4685836164        0.1879318855        1.8692921386
 C         -5.5558248900        0.6152898782        2.6085315650
 C         -5.6098174479        0.3888382647        3.9738250448
 C         -4.5781357744       -0.2930797563        4.5974728742
 C         -3.4888963452       -0.7295851083        3.8624320756
 O         -2.5156142258       -1.4179643372        4.5306526514
 C         -1.4906047556       -1.9370033810        3.7923813772
 C         -0.5640291111       -2.7129061231        4.4683680231
 C          0.5167868318       -3.2546751416        3.7939567695
 C          0.6689130335       -3.0048836563        2.4419929506
 C         -0.2498499193       -2.2264862114        1.7598737336
 C         -1.3515776440       -1.6855342182        2.4162193825
 C         -1.9155726840       -1.1489195346       -0.6568552067
 C         -1.6845798921       -0.5759348784       -1.8882963603
 H          1.4120295395        2.4211140127       -1.8787844806
 H          2.0121670220        2.2448147677        0.4961550809
 H          0.1841615952        1.4178518666        1.6040392025
 H         -1.3619281981        2.0279323491        3.4119865163
 H         -0.9627734718        1.2297110220        5.7133739228
 H          1.0249168149       -0.1888223921        6.1811838885
 H          4.8894149469       -2.2671053894        4.9450817131
 H          6.6732852663       -2.7775002210        3.2920548025
 H          6.4591009054       -1.9327630954        0.9757129306
 H          4.4784297067       -0.6488195857        0.3083742139
 H          2.1806701555       -2.0155750554        0.1477763202
 H          1.5511322699       -1.8328847666       -2.2368490227
 H          3.2272579884        1.9935611539       -3.5250750747
 H          3.6794694844        3.9189070213       -4.9871699862
 H          2.0915376207        4.5033916880       -6.7856171604
 H          0.0333224908        3.1781900740       -7.0866018266
 H         -0.4350373679        0.6503337720       -7.7176480380
 H         -2.4964644172       -0.6759629840       -7.9925465920
 H         -3.9984842810       -1.0296007912       -6.0644816944
 H         -3.4522211856       -0.0355440908       -3.8816457863
 H         -1.6255996763        2.6774481021       -0.9724109152
 H         -2.1228426738        1.6599709328        1.2259051544
 H         -4.4348471021        0.3597251339        0.8055810128
 H         -6.3646814938        1.1270887413        2.1108727782
 H         -6.4539357011        0.7295066279        4.5516439078
 H         -4.5987246395       -0.5014278318        5.6550546157
 H         -0.7080849897       -2.8747884256        5.5242268195
 H          1.2349462528       -3.8589289231        4.3247869007
 H          1.5119278437       -3.4217179667        1.9114022741
 H         -0.1113375177       -2.0215277867        0.7118949432
 H         -2.0139215037       -2.2213720677       -0.5695057852
 H         -1.5527562887       -1.2031793764       -2.7561065332
