113
 energy: -164.798345440626 gnorm: 0.000044686185 xtb: 6.7.1 (edcfbbe)
C            0.23186173093960        0.24766858789835       -5.05235685835527
C            0.69816632363117        0.51935462717114       -3.65938179794659
C            1.83001251270385        1.30350681934452       -3.42385582027868
C            2.25511126366662        1.56933185186740       -2.14546371958248
C            1.54475457157864        1.07949989505545       -1.03867771199903
C            0.39954570631307        0.29734788267779       -1.26323443447836
C            0.00682342353490        0.02544874242308       -2.56423292771204
C           -0.43947795152410       -0.22907126428227       -0.12788623586117
C           -1.82741705038346        0.38082294990839       -0.27914569780006
C           -1.96376400092715        1.74280947799196       -0.07519691243108
C           -3.18724880269102        2.37429182089174       -0.22086979108772
C           -4.31672675425062        1.63361825250740       -0.57939607544593
C           -5.62818717503789        2.28888870218577       -0.73333540042864
C           -5.73797358694983        3.41726186948496       -1.54036341193488
C           -6.95907247417106        4.03378160584931       -1.74174942036949
C           -8.09482670207835        3.52456377835903       -1.13418857408543
C           -7.99835514712245        2.40722259049347       -0.32510246646434
C           -6.77482032508610        1.78019034020843       -0.10913650736620
C           -6.71009865298762        0.61618636987772        0.79432746916895
C           -7.57911786570334       -0.45686306432477        0.61954775700175
C           -7.52495976868190       -1.55079178907072        1.46416910853909
C           -6.61101237412605       -1.58196901163183        2.50357736486885
C           -5.75297324302447       -0.51146668009789        2.69535194634548
C           -5.80049845314081        0.57929365380287        1.84795558865610
C           -4.18266785370057        0.27853457287399       -0.80436309505064
C           -2.94595198979552       -0.37269061001792       -0.65694791905834
C           -2.89225057910008       -1.80347486444775       -0.87525812046481
O           -3.91137582832165       -2.45545850611783       -1.26073351924262
C           -1.63802014744874       -2.44834148964280       -0.58798043939999
C           -1.56942252309339       -3.85722894108604       -0.65655037387648
C           -0.41863195221509       -4.52788020068463       -0.34408839640652
C            0.74098634080824       -3.83346407389858        0.02880182697241
C            1.95403512466412       -4.55550384405997        0.41646801766443
C            1.83737505589856       -5.65983409345780        1.26425867572943
C            2.94789108839166       -6.34968053016447        1.70692700190336
C            4.21375447135964       -5.94326733747255        1.31368120073483
C            4.34770608295299       -4.85878550694956        0.46687336845483
C            3.23717983358127       -4.15991082143759        0.00150967372091
C            3.45460374829671       -3.08297393261678       -0.98054385416567
C            4.43683385512594       -2.11875152007664       -0.76642980689922
C            4.70212685421974       -1.15628699421375       -1.72362335779804
C            3.99415766080964       -1.14639271973828       -2.91287233775520
C            3.01056509098906       -2.09630308400465       -3.13371164775275
C            2.74111541180507       -3.05598033847428       -2.17692562941688
C            0.68064658111129       -2.43725618399347        0.07248956407231
C           -0.47835936788604       -1.74896268447103       -0.21578487970596
C            0.10809790783846        0.16160598322006        1.21711099469509
C           -0.57239645649464       -0.24789775985735        2.35351295534046
C           -0.13795189019985        0.08073791139090        3.62836380170232
C           -0.89446128645917       -0.35434567934733        4.84071664534574
C            1.01749857552242        0.85772490755044        3.74952501380959
C            1.71059264000775        1.27737605355538        2.64024483804602
C            1.27467174807020        0.93191723447213        1.35071258818949
N            1.96561347953131        1.36252457460082        0.24056231579741
C            3.15811003149801        2.12346547470506        0.42617175770295
C            3.13954403829541        3.50417585910301        0.30055016905856
C            4.30251418683875        4.23188503322748        0.48701434158189
C            5.50528851451223        3.60788846235873        0.80006234312962
C            6.80248453207089        4.37138662797558        1.01182323979385
C            7.83975387837427        3.88448514982284       -0.01137810151100
C            7.30974331225307        4.10400722693345        2.43694571913496
C            6.63298983420078        5.88372832331577        0.83927287665077
C            5.49960728412799        2.21892815902534        0.92200139948765
C            4.34725340182267        1.48005902004147        0.74135899820919
H           -0.39157435666801        1.07301754891765       -5.39950779230733
H            1.07423598243051        0.15628460794813       -5.73444370029372
H           -0.36469573801651       -0.66065550200556       -5.09125222868352
H            2.38197099762172        1.70298912754838       -4.26142479095036
H            3.14223710606166        2.16154291544349       -1.98817851964131
H           -0.87290536872393       -0.58360070181096       -2.71664754353610
H           -1.09751466689134        2.32354695502258        0.21105869654822
H           -3.27447374216652        3.43475603256485       -0.03707663426216
H           -4.85218797471412        3.79864822757490       -2.02832937870537
H           -7.02561360849609        4.90659791689768       -2.37505400538289
H           -9.05356486413370        3.99828892420504       -1.28785320614005
H           -8.87939488090447        2.01748412082528        0.16517366555132
H           -8.28371469499274       -0.44209056582064       -0.20050936480884
H           -8.19609755779085       -2.38342942351729        1.30776004275026
H           -6.56657838149457       -2.43877944699822        3.16053225788197
H           -5.04260874614348       -0.52751045590739        3.50954631164394
H           -5.13178475739198        1.41381412443240        2.00265265721024
H           -5.02681274999708       -0.32525516794721       -1.10548696489251
H           -2.46613938098450       -4.38156087787527       -0.95668982071592
H           -0.39574946259465       -5.60687668576004       -0.41212200296636
H            0.85286332946283       -5.96074962263265        1.59397921101639
H            2.82874770252520       -7.19994455012666        2.36322573126723
H            5.08920758424146       -6.47507548679278        1.65683084491621
H            5.33110554359243       -4.56090039913721        0.13044425813101
H            4.99179881723647       -2.12935359475446        0.16183705401832
H            5.46957845894249       -0.41650294994427       -1.54677413501135
H            4.21253987613137       -0.40652234049388       -3.66764692342369
H            2.45613494657164       -2.09701122553809       -4.06041009349932
H            1.98516361080838       -3.80574510662140       -2.36069389744722
H            1.56080722576124       -1.88480910668860        0.37078129715626
H           -1.46745834223787       -0.84019683520439        2.22486417671962
H           -1.50962347944856       -1.22363932389355        4.62239181493881
H           -0.21502459275768       -0.59123683702125        5.65654024858334
H           -1.55029742813166        0.45095005700822        5.17491060366109
H            1.37018586672541        1.13471249501869        4.73170307557882
H            2.59601907337843        1.88146543472215        2.75903557874977
H            2.21513401839641        4.00745581949270        0.05826557074212
H            4.25042505628958        5.30254039955062        0.38326506589739
H            8.05435833569329        2.82646352907087        0.11028927296512
H            8.76979459001683        4.43512753172157        0.11119627654401
H            7.47554561076811        4.04594891312043       -1.02414671900466
H            7.51549465396268        3.04918989252064        2.59604812828332
H            8.22794655326642        4.65932084974539        2.61504876258614
H            6.56833533976374        4.42215769386320        3.16736026576653
H            6.29785222700892        6.12977411797748       -0.16577773905779
H            5.92652575257805        6.28545782700523        1.56210727995241
H            7.59062839234252        6.37424051983721        1.00097876437961
H            6.40993014155316        1.69315611349788        1.16377025454194
H            4.35939727307831        0.40544001950872        0.83852020525765
