113
 energy: -164.872111047752 gnorm: 0.000062498990 xtb: 6.7.1 (edcfbbe)
C           -0.17976602294540        2.22301280001599        4.75094711349981
C            0.23590895031435        1.43473746985941        3.54560291427942
C            1.29296829318404        0.53517097999174        3.60334339354265
C            1.66048491869068       -0.20250173429091        2.49867661190986
C            0.97126409139529       -0.07961723078971        1.28946572701298
C           -0.10064088784949        0.81259029491146        1.22530487112587
C           -0.44372892234822        1.55564153862769        2.34336715453008
C           -0.93440337111669        0.97751954241305       -0.03689448049195
C           -2.35357360595944        0.60927309580672        0.32169312884143
C           -2.64468892645880       -0.71717701380307        0.62518463889927
C           -3.91903752885371       -1.10762776351849        0.97710382549114
C           -4.95599333357435       -0.17472073644223        1.04745159076777
C           -6.32083817683363       -0.57763102049252        1.43077377267243
C           -6.97162662909348        0.11572336949170        2.44707397664003
C           -8.23589875169756       -0.25516935315000        2.86608327698437
C           -8.86950190796124       -1.33257952959078        2.26900196402207
C           -8.23673982558341       -2.02489596553950        1.25308743420367
C           -6.96631301238387       -1.65953853126223        0.81736889572678
C           -6.34938981212456       -2.39482174048617       -0.30224584611235
C           -5.84407181280066       -1.71638682740033       -1.40846286008953
C           -5.27682423748089       -2.41288611851945       -2.45917416160779
C           -5.20369392932674       -3.79571173765906       -2.42079777253628
C           -5.71408123247478       -4.48028409683784       -1.33045230941170
C           -6.28799169709368       -3.78563405175610       -0.28089827566539
C           -4.66459505668871        1.15035075041670        0.77308714787620
C           -3.37867573976572        1.55187495555497        0.40656124269730
C           -3.15095960944498        2.97653332517578        0.11142233878532
O           -4.02556550785365        3.82054265287548        0.28958476982173
C           -1.82999699676617        3.33116698695890       -0.42577645057496
C           -1.62566178422023        4.63783386501625       -0.88120959276822
C           -0.42029170117171        5.01784114383689       -1.42068501274221
C            0.63214249739714        4.10164592688522       -1.49575252185149
C            1.91149892629601        4.49873349404057       -2.10772598388686
C            1.88851547658506        5.09495554732097       -3.36626921421136
C            3.05914084055081        5.44772372959198       -4.01096523218109
C            4.27824543113869        5.20999645430115       -3.39764550163544
C            4.31414380730958        4.62715333201058       -2.14481941218836
C            3.14334024781657        4.26613642386811       -1.48188246302433
C            3.23968831860055        3.70672143784549       -0.12167633313689
C            4.15476978033942        2.69444529673017        0.15717106769409
C            4.28952883951434        2.20088345493700        1.44192743337744
C            3.51649786678387        2.71540857177990        2.46832081142422
C            2.60384896947928        3.72183846214441        2.20216477094095
C            2.46575294899565        4.21516505848848        0.91846991587536
C            0.43236920207828        2.80776529952432       -1.03158944415427
C           -0.78832504456514        2.40412721100306       -0.50899236060405
C           -0.46252259527882        0.05980499967803       -1.14901126718496
C           -1.15074095875567        0.08738441142774       -2.35327679993381
C           -0.77735863905160       -0.69831747856776       -3.43162259739859
C           -1.52131361713468       -0.65306054609950       -4.73217873411040
C            0.32412796487374       -1.53296816517566       -3.27452697442407
C            1.01883480095733       -1.57938721579992       -2.08544081004738
C            0.63816782786135       -0.78496719633166       -0.99917565864788
N            1.34027946058660       -0.83958873434816        0.19301464581183
C            2.46599089631839       -1.70840813349482        0.29340314704824
C            2.30073504277701       -3.04221104651635        0.64226166407472
C            3.39994000319185       -3.87486791217252        0.72313637223367
C            4.68863241727734       -3.41213808449069        0.46200745750414
C            5.86315458945257       -4.37381480452401        0.55993062623140
C            7.20333830572903       -3.70418622111096        0.24102387794038
C            5.65200479066475       -5.52208512982710       -0.43839032397601
C            5.93470198833880       -4.93253940357577        1.98898541747178
C            4.83430221938699       -2.07278103579629        0.11864749998519
C            3.74002347088431       -1.22911594377460        0.03328519937305
H            0.67981677592475        2.46313157337608        5.37303433760805
H           -0.67518875161550        3.14606287491168        4.45751153891121
H           -0.87987144530973        1.64332732154317        5.35471882363884
H            1.83667225418114        0.40759843976217        4.52847264818412
H            2.48824183816651       -0.89128268614252        2.56794480144695
H           -1.27511342648928        2.24466718708523        2.27187224060483
H           -1.85431501986433       -1.45190861354831        0.57833938521347
H           -4.11806852430532       -2.14249605765682        1.21182827889056
H           -6.46577977424278        0.94447257597297        2.92201337912367
H           -8.72381054406600        0.29309235712578        3.65869683158266
H           -9.85687647956242       -1.62947695105279        2.59117252707313
H           -8.73763515732925       -2.85220112168781        0.77063290038345
H           -5.90850160412765       -0.63841530323323       -1.44699431824735
H           -4.89286587600792       -1.87368389657034       -3.31248638623361
H           -4.75468959363728       -4.33808601450760       -3.24009315393571
H           -5.66446664271265       -5.55934081465614       -1.29717556359021
H           -6.67582962896341       -4.32061461792155        0.57465199313749
H           -5.43624881598961        1.90675348276942        0.81585014990941
H           -2.44857584447923        5.33441523935255       -0.80322861139346
H           -0.27520285016863        6.02941530308708       -1.77093345042725
H            0.93566322487645        5.26098899628134       -3.84844550300995
H            3.02026187802980        5.90564330364873       -4.98842609591544
H            5.19862687675199        5.48493013875546       -3.89170892236830
H            5.26348495327830        4.46628339793882       -1.65434969209310
H            4.75630589825665        2.28964219666954       -0.64518077084509
H            5.00300904647402        1.41572191840473        1.64656763190788
H            3.62763084195958        2.33576648365154        3.47233048485026
H            2.00030845233374        4.12930474032516        2.99948343021944
H            1.76666242250684        5.01503018316497        0.72172280715153
H            1.23804495416238        2.09164286273920       -1.09966543909664
H           -2.00159853953103        0.74986658196892       -2.44241298934993
H           -0.85329619436278       -0.35971212141245       -5.54168412955036
H           -1.92437558592592       -1.63612146493514       -4.97434770355480
H           -2.34145920675528        0.05907235379715       -4.68486849160295
H            0.64287603146396       -2.15617241280476       -4.09780720693395
H            1.87027778136349       -2.23565474827067       -1.99043931145623
H            1.31014767866371       -3.42240799279984        0.84628926231590
H            3.24043949271711       -4.90688127975327        0.99550278951150
H            7.21510257169722       -3.31373766636976       -0.77412007263137
H            8.00281241326099       -4.43738765326726        0.32691898847623
H            7.41426972071489       -2.89640409179493        0.93816000197696
H            5.57274172944778       -5.13140288419098       -1.45117164657795
H            6.49389416331724       -6.21004682445953       -0.39944068568752
H            4.74671814151653       -6.08046150167320       -0.21667601880264
H            6.06066182333467       -4.12232071107004        2.70473349413183
H            5.03214234731946       -5.47901608443002        2.24818498524774
H            6.78090721880927       -5.60979339941742        2.08287466319677
H            5.80804728577930       -1.66298380562869       -0.09287082170786
H            3.86846637918729       -0.19090017252125       -0.23337869139449
