  53
        -78.59319108
 C         -5.0874817212       -0.5838360816        1.6682666851
 C         -4.4388996540       -0.3080873025        0.2979402194
 C         -5.5164819821       -0.2714014556       -0.8027392796
 C         -3.7515146329        1.0390746760        0.3535167896
 C         -4.4950796169        2.1797948418        0.6215772265
 C         -3.9113760052        3.4306629112        0.7052477571
 C         -2.5414100881        3.5586274427        0.5321118409
 C         -1.7777067160        2.4457892778        0.2657461956
 C         -2.3678581999        1.1772382045        0.1574698067
 N         -1.5773651679        0.0851633422       -0.1264358130
 C         -0.1794466558        0.2692401439       -0.3121645088
 C          0.3200041246        0.8161074478       -1.5020948828
 C          1.6662050232        0.9727377696       -1.6749845539
 C          2.5872608117        0.5618016130       -0.6743078039
 C          3.9826038496        0.7696077189       -0.9316091329
 O          4.3716755479        1.5071701567       -1.8773981486
 C          4.9896722532        0.1263401532       -0.0711511733
 C          6.2003233470        0.7902699803        0.1572971104
 C          7.1749988499        0.2079729389        0.9396994740
 C          6.9774449116       -1.0518666828        1.4856865666
 C          5.7983162643       -1.7343237211        1.2242981597
 C          4.8123313599       -1.1598143212        0.4473309254
 C          2.0606072882        0.0722512596        0.5423371164
 C          0.7087461276       -0.0811371021        0.7113339701
 C         -2.1010568843       -1.1854674224       -0.2266574247
 C         -1.2556532138       -2.2540662436       -0.5623241428
 C         -1.7430341416       -3.5368470344       -0.6568916402
 C         -3.0877623998       -3.7832938889       -0.4235552279
 C         -3.9297407198       -2.7309376757       -0.1145862446
 C         -3.4680146840       -1.4257677838       -0.0153447043
 H         -5.8069297991        0.1905166838        1.9181884835
 H         -4.3231225541       -0.6059528216        2.4426280539
 H         -5.6024541842       -1.5401847750        1.6664618498
 H         -6.2445677676        0.5099998257       -0.6054593312
 H         -6.0427588993       -1.2196882002       -0.8608844584
 H         -5.0537769224       -0.0750979701       -1.7679892447
 H         -5.5602301906        2.0964669311        0.7738562561
 H         -4.5196094370        4.2973150364        0.9132762283
 H         -2.0694115699        4.5259832345        0.6087842301
 H         -0.7110174583        2.5425061999        0.1421928373
 H         -0.3737599388        1.1004523333       -2.2803618795
 H          2.0722635662        1.3894179392       -2.5838459133
 H          6.3474946964        1.7672379501       -0.2767066446
 H          8.0987177030        0.7377206366        1.1233577566
 H          7.7439085787       -1.5079207742        2.0945634700
 H          5.6513291696       -2.7298707772        1.6188454705
 H          3.9198356495       -1.7206057138        0.2123887762
 H          2.7229938521       -0.1496731579        1.3647897690
 H          0.3109724505       -0.4560287355        1.6442244891
 H         -0.2125628344       -2.0588163249       -0.7529001056
 H         -1.0769062546       -4.3456164056       -0.9150823182
 H         -3.4792432802       -4.7865389333       -0.4908725400
 H         -4.9758212051       -2.9386833445        0.0504059545
  53
        -78.59311133
 C         -5.1913128125       -0.5780040538        1.5672675651
 C         -4.4617028412       -0.2599561720        0.2480246861
 C         -5.4790211840       -0.1109339539       -0.8997502811
 C         -3.7184886186        1.0490867226        0.4062509268
 C         -4.4172534562        2.2047117155        0.7258664020
 C         -3.7825959283        3.4235309032        0.8815516286
 C         -2.4077430127        3.5053485266        0.7181148220
 C         -1.6881407840        2.3774075697        0.3984058074
 C         -2.3279871232        1.1396712398        0.2332917599
 N         -1.5783113502        0.0313679965       -0.0912705919
 C         -0.1779005884        0.1841425515       -0.3019001934
 C          0.3084049374        0.5995536149       -1.5478493710
 C          1.6523383918        0.7452443750       -1.7468664824
 C          2.5829723695        0.4605892115       -0.7121219263
 C          3.9719560865        0.6672476642       -1.0007651462
 O          4.3424515885        1.2963220360       -2.0293831469
 C          5.0007136574        0.1507643323       -0.0824179044
 C          6.1976931802        0.8648137778        0.0484257513
 C          7.1922905173        0.4061621231        0.8856925622
 C          7.0291951443       -0.7803398311        1.5858055417
 C          5.8649978334       -1.5167384739        1.4228635713
 C          4.8597232528       -1.0666280269        0.5904700013
 C          2.0685569346        0.0934235209        0.5512053173
 C          0.7181861451       -0.0497892302        0.7460569250
 C         -2.1456977099       -1.2142347677       -0.2386598430
 C         -1.3278655679       -2.3074909715       -0.5614689814
 C         -1.8620508290       -3.5655627372       -0.7172477909
 C         -3.2261106630       -3.7603076641       -0.5592316442
 C         -4.0375929318       -2.6847064575       -0.2478287331
 C         -3.5277464891       -1.4048251323       -0.0803980835
 H         -4.4697353647       -0.6756376268        2.3759935736
 H         -5.7462455442       -1.5082405804        1.4880534916
 H         -5.8896877470        0.2130669260        1.8235754237
 H         -6.1815443187        0.6908633779       -0.6911333695
 H         -6.0409129345       -1.0297537485       -1.0397315753
 H         -4.9597888309        0.1196392622       -1.8279000036
 H         -5.4874231090        2.1598995493        0.8580567176
 H         -4.3564940730        4.3027337955        1.1304391151
 H         -1.8982928331        4.4484627408        0.8417350277
 H         -0.6186654483        2.4365975962        0.2743233052
 H         -0.3933615878        0.7984346720       -2.3451169393
 H          2.0486106022        1.0671978647       -2.6976911510
 H          6.3176527906        1.7840641344       -0.5040669568
 H          8.1042967754        0.9760228690        0.9921867001
 H          7.8109748964       -1.1398114197        2.2383700255
 H          5.7452484518       -2.4591796325        1.9386241701
 H          3.9814802569       -1.6751148401        0.4335346792
 H          2.7374200335       -0.0375592721        1.3877243938
 H          0.3299320197       -0.3289677152        1.7157212458
 H         -0.2688605922       -2.1498000207       -0.6900264986
 H         -1.2175435162       -4.3950001149       -0.9644053688
 H         -3.6555169508       -4.7427055947       -0.6810990561
 H         -5.0975126784       -2.8540375184       -0.1351419660
  53
        -78.59300059
 C         -5.6084137801       -0.2111830453        0.4398225982
 C         -4.4070854456       -0.1412363766       -0.5220017991
 C         -4.8956347077       -0.1478963540       -1.9836350124
 C         -3.6561211220        1.1484076515       -0.2694214833
 C         -4.3124213688        2.3650371660       -0.3924211796
 C         -3.6706899619        3.5684496221       -0.1634726134
 C         -2.3339198522        3.5720695871        0.2063331098
 C         -1.6545778899        2.3822525813        0.3289746831
 C         -2.2977122274        1.1593032271        0.0853394305
 N         -1.5848607192       -0.0124162547        0.2065456221
 C         -0.1856298804        0.0544389723        0.4630164914
 C          0.3217490310       -0.1037676867        1.7584686943
 C          1.6699126577       -0.0512118783        1.9793132928
 C          2.5820402020        0.1413275825        0.9076640101
 C          3.9781212147        0.2073144633        1.2246860536
 O          4.3857776358        0.3431489129        2.4099143120
 C          4.9749239099        0.1124440507        0.1431972431
 C          4.7976529774       -0.7243319539       -0.9629469299
 C          5.7675319744       -0.7890708685       -1.9432265202
 C          6.9326926182       -0.0443511671       -1.8331554038
 C          7.1331130914        0.7518145805       -0.7148597499
 C          6.1743502737        0.8217905902        0.2736649302
 C          2.0463436855        0.3455247646       -0.3833689628
 C          0.6930810738        0.2990209621       -0.5978139594
 C         -2.1750752081       -1.2448760837        0.0368675226
 C         -1.4032779892       -2.4052820879        0.1990997316
 C         -1.9632204290       -3.6519831340        0.0420362134
 C         -3.3049105256       -3.7691317385       -0.2887047082
 C         -4.0674606003       -2.6283146413       -0.4604954290
 C         -3.5327516772       -1.3573205771       -0.3032299698
 H         -6.2689008102        0.6390112908        0.2972704717
 H         -5.2586152494       -0.2063255996        1.4702715283
 H         -6.1836609760       -1.1177091029        0.2763047536
 H         -5.5381739418        0.7058222373       -2.1793139440
 H         -5.4543398112       -1.0541273081       -2.1997005163
 H         -4.0440462843       -0.0995585700       -2.6596828529
 H         -5.3536433346        2.3815964089       -0.6756105244
 H         -4.2109983784        4.4965395926       -0.2685652764
 H         -1.8231746401        4.5030004029        0.3984086098
 H         -0.6160032008        2.3804237831        0.6191734856
 H         -0.3658548598       -0.2656718314        2.5762795965
 H          2.0815098725       -0.1633264835        2.9706940119
 H          3.9189897712       -1.3478945740       -1.0364016962
 H          5.6191348269       -1.4380681373       -2.7949284989
 H          7.6868130016       -0.1008509365       -2.6041071136
 H          8.0453714605        1.3221137896       -0.6137669874
 H          6.3237628441        1.4352079187        1.1489251216
 H          2.7021107993        0.5810208935       -1.2072127125
 H          0.2879896321        0.4597282681       -1.5872317509
 H         -0.3586712525       -2.3105903853        0.4490194146
 H         -1.3547262136       -4.5331693076        0.1747053294
 H         -3.7534113498       -4.7422939967       -0.4159409683
 H         -5.1071248251       -2.7387073654       -0.7280523369
  53
        -78.59252676
 C         -5.1883417734       -0.5213935478        1.5392587429
 C         -4.4271096650       -0.0451987178        0.2873939628
 C         -5.4082425238        0.5651207219       -0.7324589795
 C         -3.4356472581        1.0247525635        0.6893317042
 C         -3.8897530361        2.1836649809        1.3037520928
 C         -3.0344025026        3.2141454011        1.6472237529
 C         -1.6850637586        3.1077411634        1.3467622204
 C         -1.2059926901        1.9706533510        0.7387731344
 C         -2.0618079505        0.9027153569        0.4267303517
 N         -1.5457129623       -0.2397716078       -0.1510046227
 C         -0.1473952058       -0.3132870396       -0.3835777628
 C          0.3664069942       -0.2747256655       -1.6881412534
 C          1.7172071844       -0.2636594987       -1.8970719174
 C          2.6227236667       -0.2385813475       -0.8048466738
 C          4.0286981137       -0.1439110936       -1.0915665551
 O          4.4763674305       -0.4231307878       -2.2360225050
 C          4.9505708654        0.3014143620       -0.0384889823
 C          6.2864594348       -0.1177373953       -0.0857231307
 C          7.1872432561        0.3220599605        0.8607610230
 C          6.7882988628        1.2015739944        1.8567362814
 C          5.4767821797        1.6539541696        1.8847357820
 C          4.5646913208        1.2183434008        0.9455092855
 C          2.0902392851       -0.3870751310        0.4961021740
 C          0.7355536234       -0.4096349607        0.7001828585
 C         -2.3519505708       -1.2977782258       -0.5121014509
 C         -1.7694821620       -2.4608638178       -1.0392080404
 C         -2.5488337137       -3.5212447946       -1.4404062147
 C         -3.9282684334       -3.4502351465       -1.3168628521
 C         -4.5051345154       -2.3213530414       -0.7643158597
 C         -3.7451329294       -1.2385458140       -0.3452570523
 H         -5.9162085791       -1.2852877864        1.2826111467
 H         -5.7146039109        0.3037768503        2.0098797022
 H         -4.4898697218       -0.9406424975        2.2607035760
 H         -5.9262206576        1.4193377032       -0.3060907744
 H         -6.1502528017       -0.1657979776       -1.0404565628
 H         -4.8656448090        0.8980620988       -1.6151942691
 H         -4.9412774243        2.2933255071        1.5199066244
 H         -3.4195386513        4.0987616354        2.1302336652
 H         -1.0075176281        3.9140454811        1.5819700299
 H         -0.1596136862        1.8994642114        0.4909923264
 H         -0.3205894772       -0.2320670073       -2.5213361229
 H          2.1309500873       -0.2250050760       -2.8928057153
 H          6.5896962108       -0.7965346745       -0.8679535838
 H          8.2113760543       -0.0209944426        0.8223465798
 H          7.4960098282        1.5462325153        2.5959834373
 H          5.1660296565        2.3649849603        2.6374383867
 H          3.5621063809        1.6203294352        0.9477933222
 H          2.7554235081       -0.5129023673        1.3365341466
 H          0.3316078016       -0.5154759751        1.6975192939
 H         -0.6962097336       -2.5214822780       -1.1222035602
 H         -2.0821034218       -4.4052333694       -1.8467375498
 H         -4.5492836953       -4.2731813372       -1.6350339402
 H         -5.5784674459       -2.2907855195       -0.6565198904
  53
        -78.59238905
 C         -5.2286984198       -0.4884593921        1.4953965043
 C         -4.4287882940       -0.0264892090        0.2627441253
 C         -5.3737695389        0.6009840338       -0.7807348290
 C         -3.4287322802        1.0271624790        0.6860357469
 C         -3.8771644906        2.1932830816        1.2910942815
 C         -3.0137276960        3.2126283194        1.6473800653
 C         -1.6611563382        3.0871134343        1.3701198173
 C         -1.1875860429        1.9425999943        0.7717187633
 C         -2.0525989468        0.8863615691        0.4456674526
 N         -1.5434840511       -0.2629851536       -0.1250213545
 C         -0.1460611687       -0.3452769205       -0.3602312194
 C          0.3619044956       -0.3015375868       -1.6670790276
 C          1.7115626620       -0.2842833239       -1.8816852973
 C          2.6213920129       -0.2574837098       -0.7931028845
 C          4.0245446824       -0.1427133729       -1.0877205441
 O          4.4664512794       -0.4102435096       -2.2374138549
 C          4.9488514997        0.3128098338       -0.0419326964
 C          6.2942008642       -0.0714557245       -0.1158763616
 C          7.1995141967        0.3804604398        0.8201352773
 C          6.7952441760        1.2372483643        1.8337789405
 C          5.4734096344        1.6552229767        1.8890816977
 C          4.5570031748        1.2082737092        0.9595374928
 C          2.0956195003       -0.4197703283        0.5088668699
 C          0.7416495391       -0.4479948653        0.7188662092
 C         -2.3582496091       -1.3104963044       -0.4968166349
 C         -1.7826773474       -2.4824850691       -1.0116315222
 C         -2.5695688809       -3.5328175608       -1.4243074632
 C         -3.9498402836       -3.4423882998       -1.3247736014
 C         -4.5206187115       -2.3047167411       -0.7840310765
 C         -3.7530591481       -1.2318101794       -0.3535671143
 H         -5.9726784944       -1.2295212673        1.2185008372
 H         -5.7411843935        0.3482285799        1.9608905409
 H         -4.5574735370       -0.9320056665        2.2281835482
 H         -5.8973564765        1.4558470215       -0.3623440977
 H         -6.1117501041       -0.1210958355       -1.1179240426
 H         -4.8018149349        0.9371018803       -1.6434695017
 H         -4.9306733268        2.3182002150        1.4884054486
 H         -3.3947256926        4.1031685530        2.1225909376
 H         -0.9764257613        3.8841320754        1.6160566988
 H         -0.1380624461        1.8567336678        0.5428869547
 H         -0.3291183351       -0.2584584870       -2.4968457796
 H          2.1211734138       -0.2389242799       -2.8788266022
 H          6.6010408374       -0.7328929870       -0.9115634532
 H          8.2314723992        0.0653905181        0.7593993093
 H          7.5065497489        1.5918584249        2.5648959112
 H          5.1576112571        2.3492386435        2.6554542781
 H          3.5448417610        1.5843512295        0.9845765220
 H          2.7650606616       -0.5499993527        1.3452355070
 H          0.3425342130       -0.5614296068        1.7172895687
 H         -0.7089580169       -2.5572594934       -1.0760639093
 H         -2.1084389958       -4.4236431556       -1.8220033587
 H         -4.5766891170       -4.2566172429       -1.6538071040
 H         -5.5952429866       -2.2587021080       -0.6959292069
  53
        -78.59230007
 C         -5.2103685914       -0.4939990732        1.5099526394
 C         -4.4225328495       -0.0246781936        0.2722000877
 C         -5.3779367432        0.6077654556       -0.7585164773
 C         -3.4185140840        1.0263646827        0.6924606948
 C         -3.8613406130        2.1892034705        1.3078826395
 C         -2.9943351295        3.2051538719        1.6650498304
 C         -1.6440450715        3.0802650750        1.3765351213
 C         -1.1762128748        1.9394325781        0.7667534261
 C         -2.0442712737        0.8853044585        0.4416835018
 N         -1.5402024334       -0.2620459618       -0.1377237609
 C         -0.1430230471       -0.3497408669       -0.3712057417
 C          0.3684436110       -0.3203457074       -1.6770688858
 C          1.7189771225       -0.3129144020       -1.8888251515
 C          2.6253508946       -0.2788115456       -0.7980844443
 C          4.0315816786       -0.1740288641       -1.0842410076
 O          4.4839163892       -0.4714398430       -2.2220666309
 C          4.9426435915        0.3098507723       -0.0397096861
 C          6.2888541315       -0.0757054399       -0.0813769104
 C          7.1795327202        0.4061685596        0.8539451107
 C          6.7600422354        1.2948492019        1.8331912389
 C          5.4371214806        1.7127309655        1.8560644289
 C          4.5350805291        1.2348847037        0.9281509143
 C          2.0959281406       -0.4240115053        0.5044680018
 C          0.7416964598       -0.4455571704        0.7113651188
 C         -2.3587952766       -1.3072616325       -0.5082964265
 C         -1.7885928660       -2.4787683408       -1.0302345001
 C         -2.5798780281       -3.5261881721       -1.4420428576
 C         -3.9593619992       -3.4336257513       -1.3342963803
 C         -4.5247190828       -2.2969694213       -0.7857969413
 C         -3.7525940797       -1.2270170719       -0.3561057725
 H         -5.9633989162       -1.2264180605        1.2346930774
 H         -5.7103675424        0.3412015406        1.9913121690
 H         -4.5331401644       -0.9505720082        2.2290412254
 H         -5.8894268687        1.4670397336       -0.3342760791
 H         -6.1258559586       -0.1096324775       -1.0837007015
 H         -4.8160268277        0.9382889612       -1.6299387425
 H         -4.9133584541        2.3142416398        1.5130074515
 H         -3.3709600788        4.0930231787        2.1487518080
 H         -0.9567423975        3.8750570663        1.6224331006
 H         -0.1288524107        1.8552312292        0.5278090149
 H         -0.3200717020       -0.2796492522       -2.5090920149
 H          2.1305041724       -0.2793713368       -2.8856280509
 H          6.6084022029       -0.7609290144       -0.8515239105
 H          8.2125316976        0.0908461443        0.8186097293
 H          7.4604042395        1.6740584380        2.5624131835
 H          5.1091282052        2.4294158581        2.5959811752
 H          3.5215343096        1.6081283964        0.9273117398
 H          2.7635704542       -0.5460543274        1.3435816344
 H          0.3395789281       -0.5480664156        1.7097640762
 H         -0.7154628580       -2.5561852958       -1.1005683704
 H         -2.1225197290       -4.4167820006       -1.8445563645
 H         -4.5896000208       -4.2459365012       -1.6617482843
 H         -5.5985942464       -2.2497297690       -0.6898990571
  53
        -78.59009333
 C         -5.5562120298        0.0770257549       -1.3123953630
 C         -4.0465451778        0.0252500483       -1.0765757660
 C         -3.3389929711        0.1048494960       -2.4511653076
 C         -3.5415069600        1.1893328331       -0.2528938091
 C         -4.2124679354        2.3953901649       -0.1394159403
 C         -3.6511930986        3.4728405123        0.5269147525
 C         -2.3903306130        3.3582513620        1.0910399104
 C         -1.7064416787        2.1658915716        1.0052451620
 C         -2.2734651023        1.0718644082        0.3417533885
 N         -1.6004300336       -0.1353609674        0.3203170479
 C         -0.2053445118       -0.1325746275        0.5659467853
 C          0.3657197973       -0.6304431065        1.7459722100
 C          1.7224195116       -0.6235586674        1.9109730050
 C          2.5853606605       -0.1181898081        0.9008845047
 C          3.9942690030       -0.1326083778        1.1561682127
 O          4.4673950693       -0.3684010783        2.2998693349
 C          4.9319864257        0.1296845979        0.0472928423
 C          4.7001614336       -0.3284871644       -1.2532312079
 C          5.6061466241       -0.0484392414       -2.2567214992
 C          6.7632311064        0.6658183894       -1.9829273623
 C          7.0227335666        1.0765283432       -0.6834802487
 C          6.1272581131        0.8004064547        0.3282622198
 C          1.9870039359        0.4486647427       -0.2470744226
 C          0.6271132829        0.4421817321       -0.4051921304
 C         -2.2989147543       -1.3107828128        0.1270119736
 C         -1.7427533538       -2.5411440491        0.4941740285
 C         -2.4871461945       -3.6973814761        0.4045686105
 C         -3.7923768549       -3.6460866866       -0.0564381611
 C         -4.3228932590       -2.4416328150       -0.4909179099
 C         -3.5912788826       -1.2680147509       -0.4327853767
 H         -5.8261533472        0.9940484680       -1.8285404882
 H         -6.0988188482        0.0256378735       -0.3712337709
 H         -5.8681168902       -0.7459331013       -1.9492760012
 H         -3.5964029882        1.0374447164       -2.9485418022
 H         -3.6491298890       -0.7281406115       -3.0781887121
 H         -2.2585587146        0.0621223721       -2.3345498052
 H         -5.1885216787        2.5160340470       -0.5797427879
 H         -4.1971336065        4.4008961849        0.5993347429
 H         -1.9467516946        4.1944114627        1.6092184464
 H         -0.7358793291        2.0590171326        1.4640178205
 H         -0.2799491931       -0.9939556387        2.5330802487
 H          2.1802489397       -0.9944637053        2.8154087473
 H          3.8288952079       -0.9286494036       -1.4700572394
 H          5.4140011609       -0.4026284487       -3.2598004415
 H          7.4661248789        0.8826679559       -2.7736286673
 H          7.9320431921        1.6150648827       -0.4582753827
 H          6.3238612220        1.1109593322        1.3429058164
 H          2.6009518498        0.9310373997       -0.9918297529
 H          0.1774629047        0.8831033876       -1.2843690216
 H         -0.7263809538       -2.5823460195        0.8500415962
 H         -2.0491736560       -4.6389802312        0.6982671601
 H         -4.3875002566       -4.5446348742       -0.1101773469
 H         -5.3225646585       -2.4372360973       -0.8927806637
  53
        -78.58987916
 C         -5.8411226304       -0.2861414715       -0.3052715031
 C         -4.3289379574       -0.1669717507       -0.4939197838
 C         -4.0443450881       -0.0005488841       -2.0064084232
 C         -3.7427029684        1.0406777160        0.2022351661
 C         -4.4822480286        2.1503642706        0.5741605424
 C         -3.8720646606        3.2797980557        1.0963230801
 C         -2.4945676179        3.3169637379        1.2458106913
 C         -1.7365493100        2.2202502265        0.8996223935
 C         -2.3495859919        1.0717706337        0.3864123184
 N         -1.5839295085       -0.0477909897        0.1144925373
 C         -0.1966219452        0.1347703928       -0.0975393683
 C          0.2101627030        0.8410931803       -1.2422709029
 C          1.5332851008        1.0611260155       -1.4884991521
 C          2.5346899812        0.5687094743       -0.6083256006
 C          3.8983513526        0.8692550934       -0.9334811436
 O          4.1814843252        1.7181148379       -1.8219892189
 C          4.9959490020        0.2074578404       -0.2095692475
 C          6.1834235609        0.9179887447       -0.0011918951
 C          7.2457661061        0.3220202763        0.6446411731
 C          7.1575941265       -0.9950259251        1.0711356331
 C          5.9984448192       -1.7175797443        0.8295054955
 C          4.9250436503       -1.1298455110        0.1899657632
 C          2.1049347860       -0.0643213381        0.5810103900
 C          0.7728213774       -0.2819423249        0.8244482498
 C         -2.1766272130       -1.2963632556        0.1148126393
 C         -1.4116460256       -2.4550687308        0.2817327566
 C         -2.0236562347       -3.6854094190        0.3885971345
 C         -3.4041029369       -3.7804131898        0.3245945320
 C         -4.1622334816       -2.6450418794        0.0867933325
 C         -3.5729568428       -1.3994821438       -0.0436029193
 H         -6.2260113636       -1.1335979556       -0.8657364326
 H         -6.3386025634        0.5995496577       -0.6907333435
 H         -6.0948626170       -0.4079269845        0.7452558519
 H         -4.5269480831        0.9005857463       -2.3784253246
 H         -4.4278641520       -0.8588240799       -2.5536266620
 H         -2.9763329038        0.0762792434       -2.1955626614
 H         -5.5532705602        2.1527677289        0.4551999390
 H         -4.4727295982        4.1306205264        1.3789689087
 H         -2.0129411999        4.1966481781        1.6440258898
 H         -0.6668593189        2.2302955563        1.0391928990
 H         -0.5435032488        1.1958636265       -1.9312822279
 H          1.8622558753        1.5964884954       -2.3658871863
 H          6.2442162193        1.9395984165       -0.3439193200
 H          8.1519617817        0.8859723773        0.8136178766
 H          7.9925644739       -1.4619270584        1.5722665923
 H          5.9357841789       -2.7540435342        1.1300177852
 H          4.0470736821       -1.7169394772       -0.0360638263
 H          2.8287885227       -0.3402204545        1.3325262521
 H          0.4581505309       -0.7335031771        1.7552792514
 H         -0.3375454822       -2.3826404527        0.3289009538
 H         -1.4229204160       -4.5712621031        0.5271364919
 H         -3.8905303731       -4.7379616329        0.4293194007
 H         -5.2304176036       -2.7505814417       -0.0071449049
