  50
        -70.59204629
 C          1.6592290894        5.5324105988       -0.1822072268
 C          0.6766830546        4.4123655933       -0.1032385617
 C         -0.6899979705        4.6283199605       -0.0533095170
 C         -1.6042289623        3.5899650868        0.0067534329
 C         -1.1183417450        2.2525626435        0.0167535254
 C         -1.7272468019        1.0040809189       -0.0026962415
 C         -3.0744967641        0.5595836162       -0.0167940307
 C         -3.3047744958       -0.7862799113        0.0201811929
 Br        -5.1205302565       -1.3690269120        0.0086263064
 C         -2.2828863222       -1.7770865270        0.0763731065
 C         -2.6198023077       -3.2285375239        0.1521252030
 C         -0.9499362782       -1.3461150638        0.0616697403
 C         -0.6689380614       -0.0005933602        0.0017472855
 N          0.5329717000        0.6503474087        0.0110284710
 C          1.7901869215        0.0575318529        0.0120120645
 C          2.7914757443        0.5090729063        0.8747474252
 C          4.0356525171       -0.0866742801        0.8771589150
 C          4.3394964186       -1.1470275450        0.0259577321
 C          5.6953180620       -1.8300925161        0.0010555942
 C          6.6737262271       -1.2373256598        1.0186099534
 C          6.3081964750       -1.6761836007       -1.3987934163
 C          5.5113457737       -3.3197650168        0.3258353127
 C          3.3307036010       -1.5845017270       -0.8363076391
 C          2.0828409500       -1.0045279854       -0.8489185282
 C          0.2953924436        2.0386312090        0.0078597703
 C          1.1836126027        3.0632083663       -0.0792834041
 H          2.3460922215        5.5020922251        0.6655889785
 H          2.2609490490        5.4495561675       -1.0891890596
 H          1.1547886998        6.4950445936       -0.1866736778
 H         -1.0556075723        5.6455394870       -0.0636195330
 H         -2.6643421283        3.7790496450        0.0447401896
 H         -3.8822854429        1.2717073746       -0.0502520530
 H         -1.7135620238       -3.8277027415        0.1921590459
 H         -3.2045867612       -3.5397422999       -0.7157048329
 H         -3.2181152737       -3.4450647675        1.0395318351
 H         -0.1602855839       -2.0794448262        0.1157309579
 H          2.5718349942        1.3050455626        1.5702532541
 H          4.7720415534        0.2861101640        1.5700291689
 H          6.2955050865       -1.3425919408        2.0328372389
 H          6.8630429054       -0.1860724231        0.8144101945
 H          7.6226875892       -1.7661668746        0.9583222132
 H          7.2869176296       -2.1498649467       -1.4320681392
 H          5.6823335271       -2.1351791882       -2.1589999882
 H          6.4258391708       -0.6227878120       -1.6442287424
 H          6.4761142182       -3.8222295316        0.3342342654
 H          4.8790554043       -3.8115289302       -0.4079734222
 H          5.0525220452       -3.4370493942        1.3054033914
 H          3.5240687747       -2.3932663718       -1.5245132078
 H          1.3335681670       -1.3404275424       -1.5498310743
 H          2.2484066420        2.9028941710       -0.1483675842
