50
 energy: -70.705528626399 gnorm: 0.000085714596 xtb: 6.7.1 (edcfbbe)
C           -2.41295174161632        4.90279904856281       -0.26062555578395
C           -2.74802014646214        3.44428532709761       -0.17329541708223
C           -4.09141237409782        3.05093631508983       -0.14522988010482
C           -4.45769661149750        1.72421146402177       -0.08245414345679
C           -3.45889695904417        0.75969634965054       -0.03121680130141
C           -3.46267857562781       -0.67328095048848        0.01866659248999
C           -4.46814231130644       -1.62782748034351        0.05942008812085
C           -4.09838984223411       -2.95482857469075        0.12558868782842
Br          -5.49276719413096       -4.26497208265597        0.17341372046500
C           -2.76396249163912       -3.37880050921239        0.16907401743157
C           -2.42415601230225       -4.83258381952130        0.26150060812356
C           -1.76335166599763       -2.42126832438214        0.12728682207741
C           -2.10807095117556       -1.08036374725409        0.03690801169880
N           -1.29839991903767        0.03250526251343        0.00482268033203
C            0.10519514386008        0.02648968036281        0.01311898011549
C            0.80946918776599        0.79949270473774        0.92667681594979
C            2.19277473751251        0.79269306757803        0.92868031498024
C            2.91521606816114        0.01246550024676        0.03366469495988
C            4.43463886049156       -0.02879606331966        0.00853798261751
C            4.92483366913276        0.43641619933644       -1.37005811762400
C            4.89948446330607       -1.46890759256994        0.26764039899057
C            5.06724688639005        0.87499249689817        1.07011966265989
C            2.19279147941975       -0.76009733956920       -0.87353229140602
C            0.81295331135755       -0.75494869514520       -0.89373275150076
C           -2.10271868397579        1.15460233709482       -0.03593072696524
C           -1.74428346179642        2.49213299074981       -0.12205627467678
H           -2.80637439136095        5.43395987715819        0.60559752062262
H           -1.33747085081011        5.05528130755323       -0.30236787944369
H           -2.86200599523837        5.34245146775563       -1.15036434797312
H           -4.85437940970702        3.81478010120789       -0.18349564815878
H           -5.49792761188207        1.43603942879423       -0.07687320497263
H           -5.50830888302377       -1.34237010948949        0.04348634804673
H           -1.34720064882341       -4.97488829670283        0.29562818309686
H           -2.82268901740280       -5.37299288426228       -0.59737244187377
H           -2.86440797276165       -5.27145039287591        1.15692097608424
H           -0.72818801088486       -2.72402409745569        0.17635693725188
H            0.27019923153863        1.39764354524637        1.64623483759008
H            2.69948852305486        1.40705382497317        1.65459210842659
H            4.55791854983572       -0.21064540195392       -2.16183081952557
H            6.01215681214473        0.42947948256565       -1.40176829098802
H            4.58026903877727        1.44893633919787       -1.57001264840155
H            5.98625992710571       -1.51583770055919        0.27135268407748
H            4.53604573137455       -1.81350491449580        1.23362472488795
H            4.53312985328858       -2.14848887810193       -0.49670158645125
H            6.15105495847183        0.80466918734529        1.00514472958907
H            4.77148028858405        0.57036505677402        2.07136759194641
H            4.78961352231378        1.91511010404707        0.91568066516007
H            2.71119515147329       -1.37792328219849       -1.59094222908252
H            0.27696867679591       -1.34623683055420       -1.62142154029230
H           -0.70552933831653        2.78555150122385       -0.15982678856856
