  99
       -149.93378739
 C         -1.2340536469       -4.8736924968       -1.1809204640
 C         -0.8494361654       -3.6412830659       -0.4301914732
 N          0.4171215312       -3.2575445544       -0.5113980585
 C          0.7678154115       -2.1729186194        0.1762423521
 N          2.0809929501       -1.7119495084        0.1217966414
 C          2.7003733720       -1.3081083892        1.3047522423
 C          2.4062381863       -1.9554001038        2.5044309163
 C          3.0568927413       -1.5984426671        3.6679024113
 C          4.0237153772       -0.6064258097        3.6461615355
 C          4.3285827073        0.0297141683        2.4559818223
 C          3.6748583351       -0.3083616696        1.2803279495
 C          3.9114559070        0.4257195906       -0.0228673937
 C          2.8262068177        1.4840956512       -0.2222192245
 C          1.9700901463        1.8638541493        0.8031613372
 C          0.9975082922        2.8267361552        0.5924815430
 C          0.8678412605        3.4301775024       -0.6455850225
 C          1.7207823574        3.0635465841       -1.6731254464
 C          2.6881294387        2.0976905467       -1.4634843138
 C          5.2996496206        1.0410523945       -0.0104934122
 C          6.3977630069        0.1858487608        0.0366499919
 C          7.6837109124        0.6888352688        0.0712800517
 C          7.8945932899        2.0585018150        0.0652649922
 C          6.8091829617        2.9147549556        0.0312486726
 C          5.5188773487        2.4106646057       -0.0035090155
 C          3.7725362966       -0.5763603667       -1.1592801552
 C          4.5187553556       -0.4636394072       -2.3233615760
 C          4.3028598028       -1.3115570951       -3.3949933066
 C          3.3249442529       -2.2871336164       -3.3085337082
 C          2.5870438804       -2.4316689617       -2.1502064627
 C          2.8037000765       -1.5821062070       -1.0690186312
 C         -0.1521176598       -1.4534583857        0.9289384652
 C         -1.4712755360       -1.9030817905        0.8925986290
 N         -2.4995938893       -1.1910239001        1.4482595820
 C         -2.3203023791        0.1420781131        1.8776125561
 C         -1.5636158650        0.4449843728        2.9994469194
 C         -1.4378993211        1.7630085130        3.4021710831
 C         -2.0731232241        2.7678445770        2.6922581612
 C         -2.8362721934        2.4633280733        1.5763061556
 C         -2.9705700782        1.1492124239        1.1611918119
 C         -3.7348412871        0.6953343447       -0.0714189930
 C         -4.6149199402        1.7961269177       -0.6187717717
 C         -4.4540785254        2.3052953647       -1.8989619473
 C         -5.2817975866        3.3155019097       -2.3611171263
 C         -6.2779396663        3.8294543435       -1.5507129297
 C         -6.4428031925        3.3293807320       -0.2690351807
 C         -5.6173683593        2.3219409939        0.1928624677
 C         -2.7170112713        0.1887366986       -1.0978546435
 C         -1.4256722624        0.6993121009       -1.1388301493
 C         -0.4840930976        0.1693230792       -2.0037472998
 C         -0.8229096714       -0.8693911556       -2.8519020619
 C         -2.1193743774       -1.3545170945       -2.8487035265
 C         -3.0590901668       -0.8299507590       -1.9802772094
 C         -4.5412935888       -0.5190719242        0.3682831614
 C         -5.8623553102       -0.7629949733        0.0329931448
 C         -6.4653692097       -1.9538381791        0.4051372856
 C         -5.7508821140       -2.9132025914        1.1016391238
 C         -4.4309304012       -2.6816650134        1.4469622207
 C         -3.8345564831       -1.4870566113        1.0823849252
 N         -1.8008190844       -3.0234237924        0.2401815917
 H         -1.1256089685       -4.6938929581       -2.2489417764
 H         -2.2648476270       -5.1295419772       -0.9570210516
 H         -0.5734573720       -5.6943484753       -0.9106450027
 H          1.6687142637       -2.7439733229        2.5128621078
 H          2.8168864043       -2.1034151739        4.5917402894
 H          4.5359067336       -0.3256262520        4.5539032022
 H          5.0717061611        0.8126136287        2.4429882060
 H          2.0614442855        1.4163434768        1.7817111773
 H          0.3365731786        3.1017168390        1.4018124943
 H          0.1070600826        4.1791116145       -0.8101000742
 H          1.6294326614        3.5282757281       -2.6442183323
 H          3.3436380610        1.8162672486       -2.2739439889
 H          6.2355635875       -0.8822934430        0.0449063348
 H          8.5250650781        0.0121734795        0.1045390203
 H          8.8991666518        2.4540019595        0.0911336381
 H          6.9636843978        3.9841347078        0.0339292326
 H          4.6832118639        3.0936378733       -0.0220834464
 H          5.2761258270        0.3031911194       -2.3967139242
 H          4.8911027585       -1.2031734824       -4.2940499528
 H          3.1436478492       -2.9490167591       -4.1425049786
 H          1.8333631711       -3.1962949219       -2.0641028320
 H          0.1372291226       -0.5500315567        1.4366006020
 H         -1.0820032321       -0.3483968299        3.5510661867
 H         -0.8448031459        2.0037240052        4.2718251605
 H         -1.9727824780        3.7965993964        3.0058783434
 H         -3.3146830327        3.2551714335        1.0200229190
 H         -3.6791959493        1.9134781107       -2.5406382319
 H         -5.1454250065        3.7013835914       -3.3608584676
 H         -6.9229615946        4.6159375174       -1.9135263928
 H         -7.2171825312        3.7256843295        0.3715547482
 H         -5.7472672366        1.9343212263        1.1935115597
 H         -1.1398700456        1.5071882943       -0.4817245845
 H          0.5207784451        0.5641995068       -2.0038742618
 H         -0.0787161913       -1.2953493051       -3.5084257892
 H         -2.4010786479       -2.1557230379       -3.5159999613
 H         -4.0625279886       -1.2287749235       -1.9787853871
 H         -6.4180530235       -0.0333118944       -0.5370840255
 H         -7.4949706463       -2.1357577403        0.1352993040
 H         -6.2224047071       -3.8440853570        1.3779531953
 H         -3.8564770809       -3.4199306673        1.9823734592
  99
       -149.93283386
 C          0.0468637373        0.5940414526       -4.5645218252
 C          0.0401561564        0.3732220377       -3.0860499670
 N          1.0024652370       -0.3821417751       -2.5874534346
 C          1.0047397889       -0.5764570258       -1.2658863934
 N          2.0486687227       -1.3034927348       -0.7480134046
 C          2.1822499496       -1.5429378045        0.6310791021
 C          1.2146658510       -2.2517338841        1.3311332052
 C          1.3916615320       -2.5023389327        2.6792727406
 C          2.5371919706       -2.0636623946        3.3218985203
 C          3.5082275345       -1.3672306003        2.6211891241
 C          3.3422322402       -1.1029412605        1.2717409159
 C          4.2818021572       -0.2561495502        0.4256868780
 C          3.5344126922        1.0620739268        0.2107614872
 C          2.9696372524        1.7032925254        1.3091245184
 C          2.2306418421        2.8605746546        1.1486041780
 C          2.0286024383        3.3879770828       -0.1163250815
 C          2.6024983049        2.7672456813       -1.2107717614
 C          3.3596895965        1.6192488906       -1.0488177967
 C          5.6293744119       -0.0569912878        1.0832682345
 C          6.3589404009       -1.1783363765        1.4708690621
 C          7.6012929031       -1.0427527809        2.0604069189
 C          8.1387613613        0.2175719829        2.2669075442
 C          7.4264034012        1.3357154512        1.8728639764
 C          6.1803780788        1.2004560849        1.2828355237
 C          4.4241160992       -0.9819672336       -0.9015160394
 C          5.6189010900       -1.1377870719       -1.5838955367
 C          5.6387093620       -1.7605730278       -2.8213897159
 C          4.4647117048       -2.2265132714       -3.3874784886
 C          3.2630701356       -2.0818654529       -2.7167970492
 C          3.2453672294       -1.4593446893       -1.4790695404
 C          0.0279461915       -0.0190245089       -0.4458936185
 C         -0.9292042845        0.7724132230       -1.0736746185
 N         -1.9578147967        1.3514473815       -0.3752350757
 C         -3.1049029977        1.8342440717       -1.0388952860
 C         -3.0224914431        2.8209066460       -2.0080835090
 C         -4.1814767998        3.2845263603       -2.6051010264
 C         -5.4116137578        2.7731201555       -2.2291964693
 C         -5.4918470848        1.7842473146       -1.2618356147
 C         -4.3407974028        1.3066497563       -0.6586243140
 C         -4.2977353967        0.1725317632        0.3530487103
 C         -5.6761349835       -0.1466901593        0.8864098019
 C         -6.2809127353       -1.3797809740        0.6914162652
 C         -7.5505941083       -1.6253987277        1.1882218816
 C         -8.2319665085       -0.6427567443        1.8835063529
 C         -7.6378145995        0.5939259369        2.0775837009
 C         -6.3718945634        0.8399518913        1.5812808079
 C         -3.6278327027       -1.0371132438       -0.3032425398
 C         -3.5984711035       -1.1936046407       -1.6829967150
 C         -2.9210280619       -2.2554172959       -2.2564482603
 C         -2.2791273450       -3.1869597759       -1.4605142519
 C         -2.3352383661       -3.0591039132       -0.0830786737
 C         -2.9996892134       -1.9907187604        0.4907809164
 C         -3.3474705366        0.6307718685        1.4484934853
 C         -3.5617246790        0.4746673455        2.8077271069
 C         -2.5855468072        0.8502906433        3.7162135446
 C         -1.3894141581        1.3887805818        3.2729778967
 C         -1.1635769279        1.5571156121        1.9190245539
 C         -2.1346607718        1.1647619567        1.0075924986
 N         -0.9184900618        0.9636275664       -2.3967332944
 H          0.7455261286        1.3941035476       -4.8055563389
 H         -0.9459213591        0.8823984531       -4.8966936469
 H          0.3773318417       -0.3076200877       -5.0720871206
 H          0.3315749977       -2.5947402827        0.8136510247
 H          0.6359208532       -3.0441319077        3.2281231293
 H          2.6740842842       -2.2576317760        4.3752326197
 H          4.3912000423       -1.0157451307        3.1341230932
 H          3.1083860867        1.2902128292        2.2979645163
 H          1.8085898213        3.3513728664        2.0145387434
 H          1.4314977789        4.2788185686       -0.2450364619
 H          2.4589703814        3.1736448000       -2.2009734450
 H          3.8017792195        1.1529538446       -1.9160289457
 H          5.9462782902       -2.1629066760        1.3024460505
 H          8.1538304950       -1.9222092019        2.3576922131
 H          9.1095069618        0.3253097873        2.7276945336
 H          7.8416778352        2.3217841247        2.0220631407
 H          5.6393833265        2.0822269908        0.9740248398
 H          6.5354991390       -0.7566612622       -1.1592605262
 H          6.5755062314       -1.8714886090       -3.3468588690
 H          4.4840854018       -2.7067055428       -4.3541996913
 H          2.3389903861       -2.4307807307       -3.1458100787
 H          0.0203246505       -0.1828701915        0.6158679929
 H         -2.0568069492        3.2032443266       -2.2932460073
 H         -4.1234943308        4.0503308883       -3.3638900539
 H         -6.3150479404        3.1356011504       -2.6965586467
 H         -6.4528526842        1.3724781492       -0.9921753786
 H         -5.7627336324       -2.1547975719        0.1466918868
 H         -8.0082246526       -2.5908607775        1.0288228989
 H         -9.2216096328       -0.8363593014        2.2700987137
 H         -8.1642325437        1.3690662322        2.6155141721
 H         -5.9132116821        1.8073916565        1.7284963253
 H         -4.0941872643       -0.4765550745       -2.3198032547
 H         -2.8923770545       -2.3496108872       -3.3318544236
 H         -1.7427564275       -4.0101375258       -1.9090933101
 H         -1.8577569950       -3.7946984591        0.5493102729
 H         -3.0267477745       -1.8943844782        1.5668147450
 H         -4.4861886856        0.0427645079        3.1609262780
 H         -2.7593996395        0.7161061293        4.7734011536
 H         -0.6309346837        1.6826112950        3.9830259268
 H         -0.2409776076        1.9880609927        1.5609486788
