  99
  -149.288928736400       0.914548391415972      !
 C         -0.0240566880       -4.5996980768       -0.1792758431
 C         -0.0060636772       -3.1073840672       -0.0934831311
 N          1.0045613579       -2.5553697957        0.5539186305
 C          1.0287106668       -1.2218140504        0.6270549395
 N          2.1192034746       -0.6542203815        1.2396101097
 C          2.2776131983        0.7389739122        1.3444435356
 C          1.3607000133        1.5125997046        2.0440576879
 C          1.5628938219        2.8754082889        2.1601653747
 C          2.6841076020        3.4608996186        1.5964947744
 C          3.6052203943        2.6876900286        0.9090217771
 C          3.4131552403        1.3222019207        0.7787644800
 C          4.2925310879        0.3911167494       -0.0430833081
 C          3.4639637313        0.0680869851       -1.2887257039
 C          2.8691345969        1.1114976013       -1.9915816805
 C          2.0592429971        0.8570356400       -3.0826855387
 C          1.8156722870       -0.4475161283       -3.4799729240
 C          2.4183750344       -1.4889912299       -2.7983891180
 C          3.2458678919       -1.2341755082       -1.7177463051
 C          5.6302282594        1.0104415359       -0.3822459853
 C          6.4302084163        1.4879270330        0.6531066553
 C          7.6662820087        2.0465909354        0.3896787635
 C          8.1268357181        2.1316859605       -0.9143850691
 C          7.3441788471        1.6478483157       -1.9470119950
 C          6.1044158666        1.0887145769       -1.6836396549
 C          4.4691856564       -0.8670496489        0.7901889338
 C          5.6661209261       -1.5481516405        0.9346839574
 C          5.7148489808       -2.7246644492        1.6648139086
 C          4.5674733780       -3.2311089916        2.2503653239
 C          3.3642931279       -2.5605606035        2.1184517519
 C          3.3176844506       -1.3838190196        1.3884368508
 C          0.0257077922       -0.4426934964        0.0576681733
 C         -0.9829566341       -1.1266729367       -0.6141859044
 N         -2.0399185507       -0.4698707487       -1.1908836850
 C         -3.2194627138       -1.1592983154       -1.5411893478
 C         -3.2051215721       -2.2144205775       -2.4390378066
 C         -4.3948605568       -2.8355993175       -2.7756062749
 C         -5.5883892219       -2.3991326570       -2.2269135945
 C         -5.6004342537       -1.3456594951       -1.3268340872
 C         -4.4177103095       -0.7169499508       -0.9764527915
 C         -4.2974389739        0.3921265955        0.0565255660
 C         -5.6495698984        0.9700183654        0.4088679791
 C         -6.1788905892        0.8948077235        1.6888892802
 C         -7.4273091416        1.4282464752        1.9648039530
 C         -8.1625211533        2.0410168372        0.9661799534
 C         -7.6440335115        2.1151301941       -0.3166857206
 C         -6.3993903826        1.5822043924       -0.5928241662
 C         -3.5594338122       -0.1612135291        1.2779558568
 C         -3.5308909291       -1.5215258505        1.5568983899
 C         -2.7938199690       -2.0057858061        2.6234069737
 C         -2.0899276592       -1.1376162627        3.4383524494
 C         -2.1434266737        0.2233157554        3.1897036245
 C         -2.8679311148        0.7072204398        2.1158385661
 C         -3.3689125375        1.4293430184       -0.5558528319
 C         -3.5629411365        2.7997925410       -0.5110141585
 C         -2.6048813946        3.6579309806       -1.0258769132
 C         -1.4474623339        3.1524167028       -1.5933264711
 C         -1.2425846154        1.7859726131       -1.6515025988
 C         -2.1945543021        0.9263414344       -1.1200502809
 N         -0.9939627692       -2.4616042885       -0.6848904328
 H          0.6222953508       -4.9209219062       -0.9949782539
 H         -1.0351536033       -4.9435112306       -0.3757081971
 H          0.3573602344       -5.0282442075        0.7430552122
 H          0.4964855953        1.0396893207        2.4853964017
 H          0.8460195019        3.4806492748        2.6946697329
 H          2.8405777949        4.5255480040        1.6854736800
 H          4.4687615118        3.1553088027        0.4596742924
 H          3.0404353021        2.1316335959       -1.6790609022
 H          1.6143575773        1.6806704977       -3.6235700449
 H          1.1640092963       -0.6481509784       -4.3176961182
 H          2.2427046329       -2.5098190808       -3.1038564513
 H          3.7092373561       -2.0615504710       -1.2023155219
 H          6.0775651294        1.4142819157        1.6720542064
 H          8.2740317751        2.4146558996        1.2034897591
 H          9.0925657992        2.5681864088       -1.1220190599
 H          7.6991927952        1.7021803196       -2.9658632133
 H          5.5079579106        0.7088129365       -2.4994042909
 H          6.5607378054       -1.1715741900        0.4618480223
 H          6.6527120291       -3.2501858416        1.7660494769
 H          4.6090429869       -4.1508125329        2.8142156632
 H          2.4601968793       -2.9443018967        2.5601190782
 H          0.0361537826        0.6295196860        0.1246830062
 H         -2.2669254668       -2.5454438188       -2.8516610923
 H         -4.3897491517       -3.6609813618       -3.4715212730
 H         -6.5158777298       -2.8854183316       -2.4901710908
 H         -6.5322686979       -1.0274839330       -0.8838316821
 H         -5.6181834795        0.4153985173        2.4773430254
 H         -7.8259408075        1.3624534303        2.9666596265
 H         -9.1354633687        2.4563596346        1.1834422908
 H         -8.2130223624        2.5878700708       -1.1041476040
 H         -5.9999215490        1.6356726566       -1.5956042463
 H         -4.0745032395       -2.2138139721        0.9318864108
 H         -2.7675249294       -3.0686162751        2.8128580071
 H         -1.5073813499       -1.5171781581        4.2648578066
 H         -1.6169079648        0.9131131829        3.8346541138
 H         -2.8927635699        1.7704623462        1.9241063110
 H         -4.4564386809        3.2024970843       -0.0577872793
 H         -2.7622047656        4.7250864988       -0.9778728668
 H         -0.7031505097        3.8231496422       -1.9957106635
 H         -0.3509260323        1.3785221957       -2.1032225207
  99
  -149.286688619500       8.545160858402781E-002 !
 C         -0.9411185037       -0.7208747863        5.0264277179
 C         -0.6273141430       -0.0893012156        3.7099934134
 N          0.6126261313       -0.2212678293        3.2592705688
 C          0.9011775882        0.3612346067        2.0975141746
 N          2.1831043563        0.2483521875        1.5647727502
 C          2.7853814868        1.3819346654        1.0185523420
 C          2.5406046189        2.6387818701        1.5709565247
 C          3.1768300011        3.7567764386        1.0712153028
 C          4.0806832798        3.6331444480        0.0285837754
 C          4.3369283439        2.3866213026       -0.5142462396
 C          3.6963872755        1.2548340711       -0.0319831807
 C          3.8776257398       -0.1121675050       -0.6577875592
 C          2.7279294196       -0.3918713258       -1.6261009217
 C          1.8578335334        0.6062150331       -2.0448064710
 C          0.8263705559        0.3223623899       -2.9239850644
 C          0.6505634696       -0.9632325089       -3.4036739677
 C          1.5166670379       -1.9646108995       -2.9976296408
 C          2.5430802003       -1.6814563811       -2.1150837758
 C          5.2254429430       -0.1733921940       -1.3545728098
 C          6.3743507058       -0.0637352862       -0.5751915936
 C          7.6271883839       -0.0913414353       -1.1561325001
 C          7.7534656982       -0.2234677936       -2.5298466884
 C          6.6172708820       -0.3203124301       -3.3122306015
 C          5.3601507158       -0.2926770732       -2.7299171744
 C          3.7919952538       -1.1517790047        0.4498099368
 C          4.5211020099       -2.3309204966        0.3982043831
 C          4.3496583595       -3.3189028119        1.3513401974
 C          3.4342100795       -3.1321570026        2.3724298522
 C          2.7153175259       -1.9559884097        2.4556787016
 C          2.8874911590       -0.9586477832        1.4999947458
 C         -0.0555353122        1.0579998224        1.3697298779
 C         -1.3448108839        1.0795295548        1.8997904999
 N         -2.4107283668        1.5821588221        1.2037963125
 C         -2.3104601810        1.8872992839       -0.1711531371
 C         -1.5653983173        2.9673149585       -0.6198044310
 C         -1.5178762227        3.2479945769       -1.9741085468
 C         -2.2189608528        2.4587993532       -2.8701177652
 C         -2.9703295984        1.3848710088       -2.4200083913
 C         -3.0267499147        1.0916125424       -1.0679462625
 C         -3.7709390646       -0.0850206720       -0.4587156198
 C         -4.7210820025       -0.7177793039       -1.4500393308
 C         -4.6014622359       -2.0406216761       -1.8497748980
 C         -5.4931393815       -2.5810593849       -2.7619494801
 C         -6.5128542380       -1.8073182710       -3.2860748553
 C         -6.6370360216       -0.4837613057       -2.8952714573
 C         -5.7478106594        0.0562005075       -1.9856856050
 C         -2.7316546029       -1.0748420063        0.0763832444
 C         -1.4744710936       -1.1784938490       -0.5055691496
 C         -0.5086392027       -2.0043649380        0.0427437781
 C         -0.7893643314       -2.7510062680        1.1727042019
 C         -2.0535115142       -2.6872002568        1.7330958813
 C         -3.0171240274       -1.8573703918        1.1897422276
 C         -4.4979218151        0.4727782769        0.7573609807
 C         -5.8039847813        0.1780935095        1.1101815260
 C         -6.3298751579        0.6638373708        2.2966539354
 C         -5.5525740885        1.4345465523        3.1438830079
 C         -4.2467825488        1.7403529611        2.8025311215
 C         -3.7276938495        1.2618920035        1.6120313427
 N         -1.6097931661        0.5350456820        3.0925749919
 H         -0.8519620277       -1.8020746105        4.9380212198
 H         -1.9525317364       -0.4614051165        5.3228141147
 H         -0.2293332608       -0.3864146474        5.7777004260
 H          1.8530101831        2.7278401671        2.3986900899
 H          2.9752590733        4.7254009543        1.5038957948
 H          4.5814668767        4.5051383103       -0.3638774378
 H          5.0304258657        2.2934575579       -1.3362648348
 H          1.9838685537        1.6198237511       -1.6942587414
 H          0.1558947321        1.1121876314       -3.2307495459
 H         -0.1560123384       -1.1846029087       -4.0871841134
 H          1.3896345966       -2.9723447759       -3.3659698783
 H          3.2085272985       -2.4717544720       -1.8014843521
 H          6.2781535096        0.0428253930        0.4956470999
 H          8.5087548686       -0.0082442585       -0.5374326048
 H          8.7320067325       -0.2464442900       -2.9861215127
 H          6.7057910797       -0.4159926319       -4.3848257755
 H          4.4839846586       -0.3617934691       -3.3565672045
 H          5.2293525611       -2.4829307873       -0.4032278865
 H          4.9233517999       -4.2316673993        1.2895641499
 H          3.2876563680       -3.9006756011        3.1169880661
 H          2.0107101140       -1.7915265172        3.2535395835
 H          0.1815662983        1.4783947428        0.4081304924
 H         -1.0318132221        3.5818297104        0.0896649784
 H         -0.9341665720        4.0846140581       -2.3281652128
 H         -2.1796627120        2.6771344096       -3.9272591094
 H         -3.5006596309        0.7658083995       -3.1277197873
 H         -3.8088177761       -2.6544502172       -1.4489738201
 H         -5.3882571578       -3.6131917315       -3.0630930349
 H         -7.2076913562       -2.2310571039       -3.9959265725
 H         -7.4294620309        0.1285746770       -3.3004640319
 H         -5.8461179755        1.0893089269       -1.6832883940
 H         -1.2339123898       -0.6006220977       -1.3855295597
 H          0.4700422415       -2.0531768320       -0.4105709649
 H         -0.0253640939       -3.3761445927        1.6106464327
 H         -2.2904666146       -3.2758749304        2.6071022891
 H         -3.9941216767       -1.8068623880        1.6467706039
 H         -6.4077379552       -0.4480975616        0.4701876418
 H         -7.3483541205        0.4249438662        2.5642672338
 H         -5.9639186476        1.7997240671        4.0726815768
 H         -3.6240431368        2.3325503941        3.4530661416
