92
 energy: -146.979336582132 gnorm: 0.000066320521 xtb: 6.7.1 (edcfbbe)
C            5.41041821211716        4.73425059307196       -3.67103089010177
C            4.03488412888140        4.75190409099185       -3.50459650162293
C            3.46886445439909        4.35934669509990       -2.30691570222046
C            4.27737054963037        3.93147607394851       -1.25339463839618
N            3.70802380425696        3.52994729153832       -0.03911934196751
C            4.35664690219852        3.81749022834936        1.17032125322915
C            4.36464047783445        2.88086012702940        2.20385449949543
C            5.00431018972163        3.16514825616322        3.39509289868787
C            5.64910716133580        4.37869902934800        3.57334642945302
C            5.64629264068174        5.31127261466481        2.54839846416342
C            5.00297621953272        5.03909142250614        1.35603886990968
C            2.49331605907503        2.84057806875661       -0.02321263331053
C            1.55045978503597        3.09049269653070        0.97529818748424
C            0.35547525222042        2.40251750803035        0.99685235710580
C            0.07137338618799        1.43141909569852        0.03891727422548
C           -1.20404743079139        0.69770749953153        0.06854121551476
C           -2.38103588554313        1.39654110998003        0.15062181990768
C           -3.62528048219530        0.73700523956598        0.11070898126915
N           -4.75865218529106        1.44534586972244        0.18838420815688
C           -5.90272112048035        0.78349815061217        0.13315988256183
C           -5.92909156238882       -0.65316079913350       -0.00577361269720
N           -4.81032325025414       -1.35495424257542       -0.08490357056390
C           -3.65086719637852       -0.68670937917032       -0.02909997957805
C           -2.43069398790836       -1.38795636389258       -0.09046196807201
C           -1.22843616023137       -0.72941209867206       -0.02912149513965
C            0.02474243498062       -1.49727082556902       -0.02211580218904
C            1.01024082764431       -1.24571002120019        0.93245702567839
C            2.18590292882523       -1.96269018479594        0.94160762071072
C            2.42613285842815       -2.94811183452305       -0.01920143464507
N            3.63613904803649       -3.64121703088336       -0.03331083826908
C            4.82185528590679       -2.98180713526810        0.32135457919871
C            5.03560938329442       -1.65781138197677       -0.06233269403071
C            6.20162894541445       -1.00872830453014        0.29466675924664
C            7.17472065488868       -1.66783331799722        1.02875581907187
C            6.97073590006987       -2.98546979314506        1.40572142429659
C            5.80389780954331       -3.64059356920899        1.06029366224572
C            3.67675798283579       -4.99141149574501       -0.40693586766128
C            2.66116372995140       -5.86439964251513       -0.01738469357557
C            2.70632008855828       -7.19454347764300       -0.38876490208055
C            3.76366966989880       -7.67721167420473       -1.14317029859737
C            4.77760193840770       -6.81490873020240       -1.52846261319587
C            4.73700971839683       -5.48132275274033       -1.16911503979670
C            1.43235530557442       -3.21749052634712       -0.96252015947295
C            0.24842775022147       -2.51035604147889       -0.95270327690402
C           -7.19392955354030       -1.29153310534355       -0.05565535043382
S           -7.44119695220925       -2.99819575202828       -0.21742169761817
C           -9.15081989636651       -2.76916120195581       -0.17864402243316
C           -9.51781302610697       -1.47052577982883       -0.05111217853909
C           -8.40032862543974       -0.60013087913277        0.02218724430594
C           -8.37376611580620        0.81971522342451        0.15912530012554
C           -9.45736462961099        1.72948704771641        0.25898934249180
C           -9.04113986831405        3.01380639240899        0.38032013002468
S           -7.32384925147781        3.18157858629415        0.38054136704150
C           -7.14207235300204        1.46728198239913        0.21045682923660
C            1.00903554445707        1.19370440558210       -0.96496892449352
C            2.19818045721370        1.88955387108860       -1.00182418517142
C            5.66148491340628        3.91428225567122       -1.42721234293974
C            6.21861350288224        4.31674485529405       -2.62582625562302
H            5.84898785624220        5.04545322656251       -4.60724141559217
H            3.39637222522156        5.08293902639261       -4.31089003302407
H            2.39653596219715        4.38498727565230       -2.17753976841303
H            3.86983157276480        1.93074558539495        2.06329491635368
H            5.00639924954888        2.42958304952055        4.18640549037978
H            6.15055073895485        4.59616889799951        4.50448617756342
H            6.14117802460568        6.26247290982801        2.68068960798997
H            4.99447770288509        5.77104029753345        0.56149455268195
H            1.76168695470560        3.83200877041948        1.73185401568648
H           -0.36417631849046        2.60595279266818        1.77679349421340
H           -2.38473308811789        2.47415201300065        0.21917100833163
H           -2.47230244171628       -2.46489534591252       -0.15625077300916
H            0.83898120857423       -0.49687259137008        1.69107427117688
H            2.93220540165435       -1.76553209905732        1.69693047177195
H            4.28210764053884       -1.14574667816155       -0.64243638882536
H            6.35491344813488        0.01575686613276       -0.01138297084292
H            8.08568420640067       -1.15812196680201        1.30437407573417
H            7.72238180701993       -3.50630613192918        1.98096166513519
H            5.64420474897752       -4.66551579074606        1.36236855492998
H            1.84112201909220       -5.49267790382590        0.57978543490192
H            1.91398488449561       -7.86039381648085       -0.07881194692851
H            3.79741443087048       -8.71789866203006       -1.42862839812198
H            5.60331114446634       -7.18127612631728       -2.12102574053461
H            5.52501706034527       -4.80946789748450       -1.47708505227825
H            1.60033900795243       -3.97839246587038       -1.71046683507487
H           -0.50257108058407       -2.71803583951855       -1.70131574636426
H           -9.78909860817918       -3.62749738022935       -0.25470086186584
H          -10.53855769770130       -1.13769042370187       -0.00987291357711
H          -10.49009132209320        1.43363774333240        0.24028251662366
H           -9.64637111943375        3.89419548542227        0.47283626558152
H            0.79673834763856        0.46041022843579       -1.72887957360769
H            2.91404463885057        1.69553157895524       -1.78703431109536
H            6.29517346766802        3.58531134200756       -0.61650680338864
H            7.29209513859215        4.29641326943526       -2.74675465194384
