92
 energy: -146.931993174458 gnorm: 0.000034055021 xtb: 6.7.1 (edcfbbe)
C            5.36120931281780        4.93333152000449       -3.50933464584434
C            3.98744488725060        4.92572758783434       -3.32452835234287
C            3.44273160953164        4.47170838488741       -2.13911865765326
C            4.27267312022843        4.00971623772001       -1.11578643282650
N            3.72591443573155        3.54592657863123        0.08405130061370
C            4.38859735252216        3.77120567842113        1.29654817707034
C            4.39685372486483        2.78556888246681        2.28472455448722
C            5.05011310227663        3.00788311066658        3.48138615719551
C            5.70578419534455        4.20743089839207        3.71064016363902
C            5.70139261231770        5.18871405014920        2.73156708819731
C            5.04738854431079        4.97839123180296        1.53293204354458
C            2.51160776497928        2.85261511022101        0.08268376074190
C            1.57302094975763        3.06775151127526        1.09376604538293
C            0.38010816760180        2.37606516951905        1.09668494386407
C            0.09534206233572        1.43389927349476        0.10902018202641
C           -1.17123953713791        0.68728197713836        0.11886942827533
C           -2.36682769332116        1.38411374501320        0.22826320303995
C           -3.60201898452660        0.74381467522084        0.16047343389653
N           -4.75374317998670        1.41176800213427        0.26005214733650
C           -5.92005848471077        0.78599952367051        0.17249310430596
C           -5.94637593967103       -0.64574490503695       -0.03096750827871
N           -4.80405356095404       -1.31294778179718       -0.12560598436561
C           -3.62802938656521       -0.68562321606478       -0.03902534019537
C           -2.41742454769015       -1.36819827179085       -0.12457496246475
C           -1.19567576620152       -0.71278188199622       -0.03768873895402
C            0.04619022667555       -1.49550282613730       -0.05632893826919
C            1.04501710287446       -1.27016078864082        0.89304431825136
C            2.21738813567569       -1.99162782009473        0.87467359551352
C            2.43643691247513       -2.96318317155789       -0.10528060469270
N            3.64272009514323       -3.66529546782538       -0.14756190164745
C            4.83903380270342       -3.01078289487924        0.16703790791270
C            5.03049989230519       -1.67713053445777       -0.19905872498348
C            6.20924184393248       -1.03094143751101        0.11769656193213
C            7.21672439866031       -1.70072435941814        0.79440602731771
C            7.03418268220937       -3.02649508923359        1.15532245518488
C            5.85579354897418       -3.68008069955750        0.84983624303034
C            3.65564452509814       -5.01575755116870       -0.51478154261984
C            2.63075576654426       -5.86855292082493       -0.10205372477829
C            2.64385263410526       -7.19973235861058       -0.47086242705935
C            3.67553216878627       -7.70249354326905       -1.24814727220739
C            4.69742108254140       -6.86023528679503       -1.65770593318818
C            4.69109321221371       -5.52624291741270       -1.29900277719415
C            1.42906913430436       -3.21353852833438       -1.03972206203052
C            0.25179570803558       -2.49666657155820       -1.00570422615428
C           -7.19956681064499       -1.26735407612723       -0.11874595849969
S           -7.44360689616876       -2.97562436772133       -0.36405314728245
C           -9.16030023860375       -2.74858783818641       -0.33257552881813
C           -9.53003372479053       -1.46057062337062       -0.14774269487038
C           -8.41991245548212       -0.58373739945006       -0.02196833233394
C           -8.39394178067617        0.81448736307678        0.17840203240469
C           -9.47034491755153        1.73160118731113        0.30912598835950
C           -9.05251745957228        3.00527212578019        0.49110702149131
S           -7.32839267129836        3.16925376337790        0.51393597341207
C           -7.14883609353482        1.45289952097023        0.26865643493908
C            1.02977233837238        1.23518606767209       -0.90821447870524
C            2.21648651207620        1.93500452783525       -0.92753987494930
C            5.65550198349644        4.01808750419302       -1.30802248280189
C            6.19002827349289        4.47931739999978       -2.49531081092690
H            5.78245659780170        5.29177210493564       -4.43636113004467
H            3.33425029299628        5.28482324268122       -4.10634254810587
H            2.37246687675362        4.47934689206930       -1.99321626943590
H            3.89485676628386        1.84678285677095        2.10204962269741
H            5.05418054254930        2.23581791505036        4.23672714336352
H            6.21618001692003        4.37700876653438        4.64665175166297
H            6.20345526450253        6.12906465406424        2.90568446849677
H            5.03449155693529        5.74851885364605        0.77559698363520
H            1.78457549703907        3.78687354965332        1.87158308240763
H           -0.33868239043475        2.55148762884041        1.88403954738503
H           -2.36402319562855        2.45842994208417        0.33742375558589
H           -2.45447240637344       -2.44200290987930       -0.23162900921159
H            0.88466747300350       -0.53460919077707        1.66662845627973
H            2.97375585176659       -1.81558402564717        1.62517675844859
H            4.25196165031663       -1.15909540078099       -0.73871856470917
H            6.34571907751916       -0.00049358133348       -0.17532792431914
H            8.13762652301005       -1.19321193805392        1.03845302337879
H            7.81193969837452       -3.55451317826132        1.68721528520604
H            5.71166043269517       -4.70927174294152        1.14409317709270
H            1.83206410051102       -5.48072333640851        0.51318915504242
H            1.84662422576719       -7.85037379832455       -0.14259227832545
H            3.68293962728548       -8.74370880475631       -1.53289788454600
H            5.50155300008470       -7.24306269974699       -2.26880257981468
H            5.48173646691761       -4.86869556232473       -1.62937532887432
H            1.58397940935405       -3.96252008916923       -1.80242349733571
H           -0.50945352275500       -2.68695372018764       -1.74820293419348
H           -9.79263796401657       -3.60577297706077       -0.45612197165657
H          -10.55321626262836       -1.13397437142584       -0.10190873275244
H          -10.50506129221195        1.44289832305309        0.26848926054879
H           -9.65243261322705        3.88508937805074        0.61716325100545
H            0.81420357040422        0.52690851221727       -1.69424964225855
H            2.93029911901704        1.76992061127034       -1.72111578608129
H            6.30389792722754        3.65704449756943       -0.52335350946531
H            7.26142422618425        4.47713157565356       -2.63287291530346
