92
 energy: -146.978552305494 gnorm: 0.000044763627 xtb: 6.7.1 (edcfbbe)
C            2.21504422503403        8.10359905009394        0.18163239014083
C            3.27923843645779        7.47866440422965        0.81166996088306
C            3.43370498121654        6.10783617389454        0.73306585361133
C            2.52346681199452        5.33842896368162        0.00834841133985
N            2.67280688899313        3.94923544108318       -0.08609435398411
C            3.95042414739985        3.37799723690955       -0.12796316989179
C            4.21651562287750        2.19466431921149        0.56043908383407
C            5.48800718318217        1.65428364420681        0.54996196526341
C            6.50919128894423        2.27701586292918       -0.14966534546059
C            6.24673217431914        3.44543376449486       -0.84718411329865
C            4.97875287738971        3.99411852303023       -0.84125200596138
C            1.53994978298012        3.13097119659401       -0.06400078079531
C            0.47331279564715        3.42569037411311        0.78639533208172
C           -0.64855799269872        2.62683672991712        0.79846034559827
C           -0.74822927895403        1.50820945877205       -0.03064046891270
C           -1.98617986231954        0.71487926034612       -0.01233762652129
C           -3.18298739550440        1.39076480413810       -0.03110709392293
C           -4.41645110743781        0.71393029987128       -0.01909100695926
N           -5.56264465276476        1.40656861599343       -0.04729705522042
C           -6.69366197905647        0.72086407244822       -0.02823365742513
C           -6.69357808786348       -0.72207744099232        0.02787892557417
N           -5.56248040880751       -1.40764282532408        0.04717388770612
C           -4.41636409552576       -0.71486627453623        0.01916619749823
C           -3.18282075797712       -1.39155497775292        0.03135399265786
C           -1.98608569446032       -0.71553144770993        0.01266927221492
C           -0.74801124253472       -1.50866079066981        0.03104083990763
C            0.31951131683831       -1.21851989519308        0.88037851232779
C            1.44768994953816       -2.01235359429475        0.89453285080894
C            1.54055353815762       -3.13088142049189        0.06438151548627
N            2.67366547105463       -3.94882032607020        0.08640957501707
C            3.95111011537688       -3.37714126621845        0.12733221934820
C            4.21637433037621       -2.19394101192713       -0.56162373346001
C            5.48767661082268       -1.65310040643620       -0.55209146153010
C            6.50950486309316       -2.27522720356719        0.14713305181592
C            6.24787631644945       -3.44350225818604        0.84520133518817
C            4.98008803798024       -3.99263976794540        0.84022530273126
C            2.52464104370771       -5.33809207473124       -0.00728379198875
C            1.45654245858375       -5.97266725026661        0.62778109957629
C            1.30539865271524       -7.34284418832279        0.53585072667467
C            2.21679754575485       -8.10342673719061       -0.17903437551019
C            3.28062182944034       -7.47856838427727       -0.80977265286642
C            3.43479696137190       -6.10766470344140       -0.73193068773736
C            0.47381404924448       -3.42609340320515       -0.78570882267829
C           -0.64822915842191       -2.62747973129106       -0.79779296090517
C           -7.94608908260342       -1.38537736849469        0.05856311393762
S           -8.16038345046488       -3.10262481124979        0.13291394548641
C           -9.87419819084215       -2.90355782713341        0.12682582741078
C          -10.26606578342565       -1.60707642798945        0.07174398924614
C           -9.16545478347807       -0.71340666785257        0.03109045915621
C           -9.16553649706107        0.71188869776636       -0.03200953164647
C          -10.26624813080465        1.60542198841738       -0.07293833162147
C           -9.87452719676821        2.90195117851022       -0.12794058078914
S           -8.16073608593731        3.10122900588420       -0.13361724701269
C           -7.94624740022450        1.38400956268856       -0.05919800207445
C            0.31921861276721        1.21849698585390       -0.88021451403526
C            1.44719920026652        2.01261207666029       -0.89440066534372
C            1.45499982421351        5.97308095342648       -0.62601663012450
C            1.30357043700833        7.34317579483355       -0.53332800775509
H            2.09650061783810        9.17466126562301        0.24816455406137
H            3.99088204143008        8.06211686731207        1.37776033132698
H            4.25827031408402        5.62379627874364        1.23586236510931
H            3.42427198935550        1.71136692846389        1.11313871771651
H            5.68265585007304        0.74582075498424        1.10051433502956
H            7.50338653709305        1.85588974448380       -0.15089617855986
H            7.03471785655666        3.93282755588042       -1.40299052842966
H            4.77595221212513        4.90513027717176       -1.38533633838530
H            0.53610503732604        4.28334890267033        1.44005441613454
H           -1.45491879923621        2.85394761767103        1.48049974255627
H           -3.20875355883814        2.46899273152115       -0.08072781583334
H           -3.20847821175204       -2.46978320372182        0.08101032762872
H            0.25181162127355       -0.37919399478576        1.55605004018402
H            2.26454419058634       -1.78134368381043        1.56243052826961
H            3.42363417098466       -1.71111312353427       -1.11402226018382
H            5.68166716604732       -0.74474393883601       -1.10305353068996
H            7.50355172357375       -1.85374967110141        0.14761022754210
H            7.03636555822306       -3.93043222824759        1.40070166056582
H            4.77795225337382       -4.90353619585131        1.38475011700014
H            0.74959440953039       -5.38360460850879        1.19390979129789
H            0.47451769083546       -7.82073137372584        1.03441250370548
H            2.09848404758062       -9.17455130361309       -0.24496258114433
H            3.99220351722917       -8.06214757812349       -1.37581054803239
H            4.25906458885117       -5.62369701672239       -1.23528447846780
H            0.53667423018872       -4.28392944421456       -1.43913141663155
H           -1.45465298097910       -2.85495357850794       -1.47963685704102
H          -10.49607777581472       -3.77630268037413        0.16581653218199
H          -11.29312314709474       -1.29177196201015        0.05975779726085
H          -11.29326985571981        1.28999243605771       -0.06119337431731
H          -10.49650419821971        3.77461966374539       -0.16708890302176
H            0.25158144450667        0.37931262964317       -1.55606743183335
H            2.26396404082333        1.78197335676674       -1.56253330059781
H            0.74799397117750        5.38414343223630       -1.19220365851764
H            0.47240338174318        7.82112718547514       -1.03135109298175
