59
 energy: -89.636842964634 gnorm: 0.000048624642 xtb: 6.7.1 (edcfbbe)
C            5.87807062682172        1.16677716729430       -0.00018577192659
C            5.18915910224882        1.10131583767239       -1.19995008761025
C            3.81165325391047        0.97169855107306       -1.20346753725934
C            3.12155572358675        0.90780183180357       -0.00004571079011
N            1.70350453111369        0.77497854015029        0.00001848864800
C            0.92477944529746        1.92027736399463       -0.00015045212142
C            1.52820200903445        3.18112815657965       -0.00031176885140
C            0.76372320394427        4.32959408519288       -0.00047962078616
C           -0.61842809761986        4.24863919897680       -0.00049960851792
C           -1.22172642725219        3.00503365190315       -0.00035319306340
C           -0.46991470948027        1.83987088114534       -0.00017958224640
C           -1.18836501088865        0.51326247265854       -0.00002389026734
C           -2.14686499047102        0.42841119123105        1.17239112906630
C           -1.85152775885630        0.45542441733050        2.51703181777035
C           -2.89629593831705        0.36282016964387        3.42693302857014
C           -4.20759656468712        0.24586952689853        2.99207874297145
C           -4.50904826466039        0.21836580664688        1.63970731772066
C           -3.47102450878683        0.31031251916066        0.72760332045017
C           -3.47100604297911        0.31009677055675       -0.72763817769395
C           -4.50900911650932        0.21784273768929       -1.63973552803195
C           -4.20752987198712        0.24493107233179       -2.99210887684228
C           -2.89622288489223        0.36178200968199       -3.42697135480942
C           -1.85147671541441        0.45469477854530       -2.51707659987628
C           -2.14684173807313        0.42808972205517       -1.17243366379333
C           -0.24934083132941       -0.66873411172504        0.00011707004181
C           -0.77818976369406       -1.93105207400755        0.00021742546364
C            0.03227099958323       -3.08195372584984        0.00032086681469
C           -0.50321619663418       -4.38435893022838        0.00038822358973
C            0.32042343875794       -5.47594439111794        0.00047543015577
C            1.71434052203034       -5.30951809660709        0.00050651896635
C            2.26322291299166       -4.05798998539079        0.00044755742416
C            1.44039212489460       -2.91149268995146        0.00034790851195
C            1.97078155324617       -1.61133795111929        0.00026250180159
C            1.15665765377450       -0.49651018221644        0.00012694194800
C            3.81169871726533        0.97250603756328        1.20330629701243
C            5.18920471129463        1.10212678562347        1.19964831291649
H            6.95299587295800        1.26819778564501       -0.00024049455075
H            5.72561013446192        1.15138216524909       -2.13575835578317
H            3.26336983201839        0.91941971365993       -2.13243984779054
H            2.60510248534989        3.25634444939415       -0.00030842754264
H            1.25302080460970        5.29235162392601       -0.00059814260918
H           -1.22031314015995        5.14420539253828       -0.00063167464502
H           -2.29950370857820        2.92829572815922       -0.00037434013802
H           -0.82981061983161        0.54661131672802        2.85644722010949
H           -2.68519187079736        0.38214172916116        4.48608533416917
H           -5.00462367653377        0.17537577611618        3.71808348217273
H           -5.53213789669866        0.12730407349784        1.30574230208485
H           -5.53210260970083        0.12685227352143       -1.30576291431218
H           -5.00453905144741        0.17418222519704       -3.71810847479228
H           -2.68509620275564        0.38077466708106       -4.48612505980272
H           -0.82975416303105        0.54579704823202       -2.85649838313851
H           -1.85230533921516       -2.05502467560217        0.00020730889996
H           -1.57762063309876       -4.50296258256262        0.00036366770830
H           -0.09423211187123       -6.47346335755155        0.00052014188144
H            2.35085196318443       -6.18271740598105        0.00057582553442
H            3.33628529848980       -3.92649594571234        0.00046960402424
H            3.04483814663382       -1.49701618245460        0.00029573063337
H            3.26345094102586        0.92085775315493        2.13233487570285
H            5.72569144770534        1.15282428340661        2.13540214682974
