84
 energy: -122.698961330526 gnorm: 0.000036296909 xtb: 6.7.1 (edcfbbe)
C           -0.76259268530090        1.52742543096061       -1.42388571955731
C           -1.44780642907733        0.39908307051434       -0.71337501810622
C           -2.82620143830296        0.32674107676566       -0.76372898687753
C           -3.53480371223759       -0.72653886134003       -0.17607967607937
N           -4.92018404058340       -0.72606814225417       -0.19446479863418
C           -5.64702879925891       -1.91598874060085       -0.24505452340849
C           -6.88550330342558       -1.99820971265411        0.39748274270216
C           -7.62063912515074       -3.16514868804155        0.34203457815614
C           -7.13882240540060       -4.26646559252199       -0.35007218140398
C           -5.91374943040069       -4.18838182500823       -0.99530017347919
C           -5.17129080758254       -3.02509415028244       -0.94980403411956
C           -5.62098597724727        0.48795739502723       -0.26453640189234
C           -6.61494315851379        0.62670560565852       -1.24185401838906
C           -7.29272394722027        1.81988615320862       -1.39490709146560
C           -7.00096696551447        2.89909462998723       -0.57536767375135
C           -6.03364891631206        2.79157023652187        0.44351555807730
C           -5.75508117511261        3.87056285359577        1.30447851445300
C           -4.84227392127687        3.74492756566840        2.33311060564048
C           -4.19730578020614        2.53358576271369        2.54125314787005
C           -4.43805643964945        1.45764696628158        1.70405126905835
C           -5.33362641702719        1.56310711376750        0.62773521563729
C           -2.81146869274253       -1.75502657636534        0.44340440551112
C           -1.43927387286899       -1.69701326555960        0.48192535848063
C           -0.73126665080038       -0.61575103614045       -0.05652370951280
C            0.73106419963658       -0.61558888817878        0.05871610434760
C            1.43919583301619       -1.69808433452072       -0.47709649924119
C            2.81137747241733       -1.75606355617735       -0.43803387256206
C            3.53457027115770       -0.72610773330655        0.17918948020482
N            4.91993383737833       -0.72543414027209        0.19769575233416
C            5.64699720065002       -1.91512061240447        0.25033514842039
C            6.88495999267170       -1.99855912164534       -0.39302572516851
C            7.62012846283153       -3.16539651607533       -0.33595656267072
C            7.13885582651361       -4.26538550718698        0.35863711144311
C            5.91437779516107       -4.18601150063754        1.00484072871132
C            5.17186716244879       -3.02281679433780        0.95769472640100
C            5.62064960026142        0.48885358220483        0.26419734868565
C            6.61487576029293        0.63039328270812        1.24080631529331
C            7.29293273702442        1.82392897187363        1.39000053229777
C            7.00118344329667        2.90064184922510        0.56719475397967
C            6.03358743289805        2.79016344068356       -0.45111182697238
C            5.75514496528298        3.86645734657020       -1.31549322796381
C            4.84214749520788        3.73775771052410       -2.34356823391551
C            4.19682232983501        2.52591898759852       -2.54771859466351
C            4.43741147383797        1.45263581719983       -1.70709316154039
C            5.33322534953141        1.56129832279703       -0.63129313150757
C            2.82583701363699        0.32855939051187        0.76418833664106
C            1.44745020849713        0.40075525803633        0.71339046277847
C            0.76207424145116        1.53067769476328        1.42122841469206
H           -0.92713267282151        2.46398876615570       -0.89233640265393
H            0.30634247223901        1.35414974324443       -1.50577387783412
H           -1.17855610954493        1.64140090079677       -2.42378635299000
H           -3.37786588577350        1.09537011209273       -1.28580613005534
H           -7.25282447089097       -1.14225253358619        0.94451598117458
H           -8.57336605441588       -3.21884653376457        0.84786595918803
H           -7.71619538955311       -5.17765656498244       -0.38990398437524
H           -5.53861965353258       -5.03771566318426       -1.54725882685632
H           -4.22925382785833       -2.95811358560489       -1.47373891453131
H           -6.81841282426537       -0.20599276040996       -1.89995369631307
H           -8.04158715527571        1.91550983671339       -2.16780543812306
H           -7.52252199739897        3.83650869263328       -0.70218644985831
H           -6.28050699116875        4.80294116183582        1.15235068534194
H           -4.63931457502137        4.58506181307864        2.98229501627007
H           -3.49913855754126        2.42595057844369        3.35933982064961
H           -3.93340763681318        0.52248295124303        1.89418521215876
H           -3.33685860503382       -2.57072448044670        0.91730286312984
H           -0.88809130851718       -2.48214190781053        0.97891092094935
H            0.88814993643734       -2.48430580732889       -0.97250675059285
H            3.33690003009562       -2.57284270751883       -0.90992358783295
H            7.25179186361388       -1.14366152001174       -0.94204320463587
H            8.57238255138378       -3.22010141204492       -0.84256952056417
H            7.71621584071163       -5.17653215132160        0.39965808650140
H            5.53976571268945       -5.03425154441533        1.55883011559650
H            4.23025841257474       -2.95478167585274        1.48226992910305
H            6.81844105376101       -0.20038084935857        1.90131276947226
H            8.04206694886965        1.92178158774498        2.16236058850326
H            7.52298968071646        3.83833090214442        0.69094242444223
H            6.28087830463640        4.79916678060059       -1.16649469952769
H            4.63936917308544        4.57580055994776       -2.99550508256842
H            3.49850727885795        2.41582991782849       -3.36535781246525
H            3.93247497734782        0.51701033382354       -1.89414065081886
H            3.37740110316637        1.09845875744056        1.28450386092365
H            0.92745187209938        2.46618714338781        0.88808623741060
H           -0.30699162561482        1.35797937738085        1.50257134454265
H            1.17724278153448        1.64630475665368        2.42127310954825
