  69
  -115.709207584800       0.638250649506531      !
 C          7.5706412870       -3.0358030471       -2.1018643944
 C          6.1935536663       -3.1288844387       -2.1207216114
 C          5.4209004588       -2.2520130273       -1.3749966454
 C          6.0141186529       -1.2720071879       -0.5891763896
 C          7.4112521130       -1.1628473055       -0.6056741457
 C          8.1773739189       -2.0429629101       -1.3478521621
 O          8.0842660675       -0.1827525686        0.0798102355
 C          7.3426172992        0.6644844538        0.8631181889
 C          8.0351886925        1.6034153773        1.6058380161
 C          7.3540604030        2.4724129147        2.4446326202
 C          5.9809241982        2.3778641039        2.5537953659
 C          5.2821231167        1.4384663700        1.8120018291
 C          5.9460029160        0.5897072540        0.9347352763
 N          5.2675881149       -0.3614975608        0.1658514441
 C          3.8624629693       -0.4041406720        0.1778445058
 C          3.2038597986       -1.5184836231        0.6692895650
 C          1.8071926245       -1.6253305930        0.7134675411
 C          1.0569020009       -0.5726846131        0.2470144808
 C          1.7254253458        0.5655781194       -0.2631169569
 C          0.8250447802        1.5574602365       -0.7191002716
 C          1.3266605492        2.7126439102       -1.2643870162
 C          2.7228655240        2.8538806495       -1.3523008756
 C          3.5988689816        1.8943523450       -0.9021970654
 C          3.1143405228        0.6999884284       -0.3239380333
 C         -0.5064060549        1.0261676420       -0.4731948091
 N         -1.6657736086        1.5662258470       -0.7148674075
 C         -2.7415154579        0.8117747362       -0.3727533510
 C         -4.0297305881        1.3183515139       -0.6016962565
 C         -5.1499989409        0.5882395321       -0.2787862631
 C         -6.4789828203        1.1359472218       -0.5961747104
 C         -6.8214545503        2.4369737206       -0.2334990333
 C         -8.0803867761        2.9103455848       -0.5628618384
 N         -8.9817168230        2.1963384481       -1.2155665874
 C         -8.6528099289        0.9667201388       -1.5745434084
 C         -7.4265137237        0.3889590040       -1.2939499266
 C         -5.0091314005       -0.6944154820        0.3128683623
 C         -6.1875810212       -1.4689081270        0.7352299492
 C         -7.1929272863       -0.8986987422        1.5140907140
 C         -8.2678341901       -1.6851937676        1.8913822183
 N         -8.3986540958       -2.9567638952        1.5527539298
 C         -7.4406864736       -3.5024993444        0.8228996154
 C         -6.3191816709       -2.8132386204        0.3935075741
 C         -3.7536545818       -1.2100652721        0.5364810434
 C         -2.5997401611       -0.4834283769        0.2048774733
 N         -1.3824542033       -1.0310619370        0.4499114119
 C         -0.3615017142       -0.2915678882        0.1201091436
 H          8.1761244643       -3.7186489203       -2.6762432946
 H          5.7050806492       -3.8823295642       -2.7190282789
 H          4.3455167752       -2.3247761966       -1.4150576599
 H          9.2491677467       -1.9273417397       -1.3276671574
 H          9.1090631160        1.6349199697        1.5148453624
 H          7.9015663790        3.2051279883        3.0158785749
 H          5.4395322083        3.0304637964        3.2209761007
 H          4.2110880183        1.3648350315        1.9174009046
 H          3.8001995438       -2.3366183969        1.0479519888
 H          1.3426661616       -2.5110833906        1.1174021222
 H          0.6734595361        3.4925359839       -1.6234278035
 H          3.1202938367        3.7561095579       -1.7938086243
 H          4.6631449763        2.0532886875       -0.9936055981
 H         -4.1166405429        2.2899628393       -1.0640692700
 H         -6.1233730462        3.0549697379        0.3106672225
 H         -8.3869732136        3.9119740393       -0.2906894127
 H         -9.4139988431        0.4185441307       -2.1139611904
 H         -7.2048930069       -0.6153713046       -1.6204470249
 H         -7.1297598933        0.1319447322        1.8273127687
 H         -9.0684326380       -1.2779696232        2.4947799153
 H         -7.5835557873       -4.5450719808        0.5702970111
 H         -5.5687855392       -3.2999361877       -0.2109329896
 H         -3.6270469165       -2.1778019932        0.9977854946
  69
  -115.708557726600       0.320875911170342      !
 C          7.5209266513       -1.0774108582       -3.1803673758
 C          6.1435638636       -1.1613515475       -3.2246583494
 C          5.3880999523       -0.9005970242       -2.0921601268
 C          5.9977301716       -0.5306457975       -0.8993383487
 C          7.3974204761       -0.4972821692       -0.8523888668
 C          8.1468792178       -0.7589722332       -1.9851855065
 O          8.0902093472       -0.2298053215        0.3005236656
 C          7.3603527320       -0.0070340225        1.4399189785
 C          8.0738437504        0.2284547762        2.6013964955
 C          7.4109780085        0.5083439662        3.7861462728
 C          6.0320870003        0.5748017646        3.7930031576
 C          5.3126300564        0.3335343025        2.6331306146
 C          5.9593436050        0.0090397334        1.4466333849
 N          5.2639692206       -0.2391647167        0.2566206622
 C          3.8600979532       -0.2916626171        0.2475618154
 C          3.2023583022       -1.2029339075        1.0584894466
 C          1.8076066864       -1.3009288003        1.1295080880
 C          1.0550351966       -0.4575492759        0.3477530298
 C          1.7195644823        0.4662077090       -0.4929146142
 C          0.8137219763        1.2608316141       -1.2361479593
 C          1.3096326879        2.2279777694       -2.0739497831
 C          2.7041641578        2.3951559387       -2.1429731403
 C          3.5848915727        1.6195834274       -1.4264356275
 C          3.1083044515        0.5993877158       -0.5726242325
 C         -0.5156623511        0.8084778558       -0.8551287017
 N         -1.6788712785        1.2140666818       -1.2765990469
 C         -2.7499125798        0.6119712843       -0.6982813272
 C         -4.0426956874        0.9681621450       -1.1126496315
 C         -5.1566631874        0.4134997328       -0.5259850311
 C         -6.4911474000        0.7422624863       -1.0518262743
 C         -6.8658029110        2.0592826760       -1.3092946813
 C         -8.1299888688        2.3040721009       -1.8188501866
 N         -9.0080970578        1.3522146295       -2.0856636113
 C         -8.6491051402        0.1002179934       -1.8562051512
 C         -7.4145558222       -0.2604780404       -1.3450328095
 C         -5.0052442900       -0.5103276842        0.5421901595
 C         -6.1716678424       -1.0110952895        1.2866865731
 C         -7.1559681624       -0.1419618314        1.7549537544
 C         -8.2121087161       -0.6629576867        2.4823278640
 N         -8.3442391854       -1.9488035796        2.7616699201
 C         -7.4077837708       -2.7740111689        2.3251568273
 C         -6.3065571743       -2.3637659289        1.5928583589
 C         -3.7460623338       -0.9015592763        0.9325834515
 C         -2.5991330781       -0.3727514721        0.3210798142
 N         -1.3791792422       -0.8049650535        0.7271612853
 C         -0.3633233614       -0.2356104526        0.1426040373
 H          8.1127305838       -1.2720599601       -4.0605425459
 H          5.6418458996       -1.4347865661       -4.1398848177
 H          4.3143100294       -0.9879754847       -2.1393067943
 H          9.2212246326       -0.7128133245       -1.9066809600
 H          9.1504013809        0.1943825691        2.5530727617
 H          7.9748774446        0.6857526719        4.6880035241
 H          5.5009399379        0.8174222692        4.7003259447
 H          4.2367630366        0.4069924423        2.6518619516
 H          3.8011367397       -1.8721184195        1.6602292128
 H          1.3454086922       -2.0299763047        1.7762140712
 H          0.6535364628        2.8528276746       -2.6595600004
 H          3.0965608384        3.1684265392       -2.7872117101
 H          4.6472168934        1.7918865727       -1.5156110842
 H         -4.1377369854        1.6743141001       -1.9236027366
 H         -6.1893346657        2.8730617308       -1.0963146713
 H         -8.4611933909        3.3137099277       -2.0243157999
 H         -9.3914963885       -0.6501362905       -2.0946648043
 H         -7.1674469340       -1.2992353351       -1.1890561840
 H         -7.0890080650        0.9185782196        1.5673622766
 H         -8.9943515317       -0.0193954851        2.8630517181
 H         -7.5511449458       -3.8166436273        2.5774687711
 H         -5.5742006492       -3.0785356367        1.2493575799
 H         -3.6090412758       -1.6035422634        1.7410115588
  69
  -115.706610472700       4.087343932312634E-002 !
 C          7.9727444391       -2.1022168401       -2.4600092909
 C          6.6182642202       -2.2763727283       -2.6564194977
 C          5.7051706635       -1.7054881365       -1.7814245708
 C          6.1420867933       -0.9552015458       -0.6992565811
 C          7.5190331595       -0.7780481083       -0.5083143980
 C          8.4223173073       -1.3492272850       -1.3831578371
 O          8.0283718078       -0.0416987938        0.5351687393
 C          7.1318370937        0.5467552063        1.3949037269
 C          7.6466087622        1.3015475546        2.4311225845
 C          6.7952027162        1.9232273639        3.3349438701
 C          5.4298878971        1.7865358902        3.1933097939
 C          4.9062202256        1.0300170516        2.1549821878
 C          5.7462727303        0.4010244963        1.2467938681
 N          5.2519651900       -0.3721935655        0.1974350224
 C          3.8510439093       -0.5219465902        0.0496653286
 C          3.2007745348       -1.5685951265        0.6698026360
 C          1.8031627843       -1.7153559042        0.6519623692
 C          1.0593163134       -0.7674859992       -0.0054509918
 C          1.7287777998        0.2867498776       -0.6705778668
 C          0.8344200905        1.1922786096       -1.2879869523
 C          1.3446942834        2.2682539080       -1.9697863692
 C          2.7423293896        2.4285756854       -2.0143099969
 C          3.6114625801        1.5659892677       -1.3900011079
 C          3.1156470107        0.4488216457       -0.6817400480
 C         -0.4995192722        0.7088627761       -0.9650262164
 N         -1.6550559451        1.2416132032       -1.2383634215
 C         -2.7311296761        0.5895101031       -0.7288717555
 C         -4.0107264903        1.1280578513       -0.9284297294
 C         -5.1284350310        0.5281691843       -0.3954422041
 C         -6.4459312746        1.1350821456       -0.6465133214
 C         -6.6439335747        2.4991548223       -0.4388400123
 C         -7.8924530474        3.0383087026       -0.6975257669
 N         -8.9157198763        2.3285374410       -1.1421163680
 C         -8.7264533383        1.0367678900       -1.3515811783
 C         -7.5232477442        0.3906043710       -1.1224059627
 C         -4.9943549019       -0.6653253100        0.3610579437
 C         -6.1565222660       -1.2968246892        1.0075142606
 C         -7.0486509031       -0.5597884355        1.7841476206
 C         -8.1055752427       -1.2193489794        2.3882253845
 N         -8.3196360674       -2.5189895278        2.2721307798
 C         -7.4689249043       -3.2217490668        1.5437951374
 C         -6.3767958484       -2.6683472038        0.8971152648
 C         -3.7486463593       -1.2201381696        0.5463603298
 C         -2.5964624328       -0.6105441331        0.0275942926
 N         -1.3826292506       -1.1569374463        0.2945486674
 C         -0.3610237812       -0.5045860466       -0.1800110152
 H          8.6868158534       -2.5447036640       -3.1363610385
 H          6.2578770734       -2.8572656168       -3.4913579797
 H          4.6451581421       -1.8411491469       -1.9359156160
 H          9.4747650255       -1.1942683139       -1.2071094835
 H          8.7175660552        1.3914476475        2.5171137226
 H          7.2074978165        2.5086313198        4.1414530325
 H          4.7570178418        2.2649006550        3.8882053608
 H          3.8369615136        0.9261862039        2.0505139599
 H          3.7956420453       -2.2898772215        1.2118750596
 H          1.3365760667       -2.5415301982        1.1649708185
 H          0.6972962863        2.9801595142       -2.4577021403
 H          3.1429364449        3.2738127364       -2.5546902930
 H          4.6769307910        1.7365511746       -1.4385609457
 H         -4.0942749227        2.0268088304       -1.5205175717
 H         -5.8414078747        3.1172024114       -0.0654354436
 H         -8.0870286669        4.0914711408       -0.5415416802
 H         -9.5863708795        0.4934934691       -1.7206221967
 H         -7.4201066478       -0.6652152667       -1.3203036166
 H         -6.9108507008        0.5009384265        1.9262184934
 H         -8.8176596205       -0.6816265965        3.0003199254
 H         -7.6776845798       -4.2815237225        1.4760820647
 H         -5.7176338296       -3.2822208462        0.3022683438
 H         -3.6247194119       -2.1164650999        1.1351234349
