  80
       -125.54160990
 C          8.0609115074       -4.6748569269        0.0986991930
 C          6.6755388950       -4.7260979820        0.1060409399
 C          5.9389139468       -3.5579704048        0.0824444788
 C          6.5874349346       -2.3248929105        0.0510649175
 C          5.8112991054       -1.0858455278        0.0271482045
 N          6.4733382192        0.0660005551       -0.0201834164
 C          5.7310965832        1.1689618095       -0.0314792340
 C          6.4189329876        2.4584070703       -0.0827558991
 C          5.6898776842        3.6451869727       -0.0431044731
 C          6.3443198108        4.8605811945       -0.0926822376
 C          7.7268204372        4.9029843573       -0.1836621290
 C          8.4566491213        3.7251311124       -0.2241764906
 C          7.8086370812        2.5064346286       -0.1735144906
 N          4.4006730196        1.1688661932       -0.0001364133
 C          3.8209652901       -0.0265398420        0.0364634858
 C          2.3587025444       -0.0799655665        0.0565058311
 C          1.6121930541        1.0964072852        0.0261972576
 C          0.2337836428        1.0437713152        0.0354108031
 C         -0.4173961381       -0.1858194156        0.0747389378
 N         -1.8346629509       -0.2281007370        0.0787976688
 C         -2.5108068476        0.1470450045        1.2318844698
 C         -1.8025527822        0.4325010163        2.4024038125
 C         -2.4632193353        0.8025259031        3.5559876184
 C         -3.8449042662        0.8861282745        3.5732856209
 C         -4.5532664654        0.5848943788        2.4249892585
 C         -3.9060247290        0.2117558958        1.2569165945
 C         -4.7309695412       -0.0876975639        0.0296003650
 C         -5.9257102753       -0.9544406145        0.3662639902
 C         -5.9330772067       -2.2368196502        0.8684793425
 C         -7.1565544452       -2.8498183418        1.1046283317
 C         -8.3453397702       -2.1863704498        0.8410405810
 C         -8.3428557477       -0.8955957953        0.3360806157
 C         -7.1254625919       -0.2793953750        0.0988349636
 C         -6.8055649659        1.0427882106       -0.4175769143
 C         -7.6213761266        2.0832095399       -0.8299053554
 C         -7.0285833350        3.2498682496       -1.2861339639
 C         -5.6484923167        3.3769153640       -1.3306553567
 C         -4.8258719042        2.3368926691       -0.9188883541
 C         -5.4113710818        1.1764280669       -0.4646367568
 C         -3.9075001724       -0.6876447967       -1.0845726189
 C         -4.5605861118       -1.1757898302       -2.2060117161
 C         -3.8573330730       -1.6634787592       -3.2916300383
 C         -2.4737653087       -1.6395735815       -3.2641057581
 C         -1.8068809786       -1.1591942137       -2.1554356577
 C         -2.5103815434       -0.6962627960       -1.0402643517
 C          0.3255383894       -1.3626390665        0.1136582971
 C          1.7038618743       -1.3094231934        0.1031869218
 N          4.4841273713       -1.1781407044        0.0528165545
 C          7.9802224555       -2.2787739360        0.0438358393
 C          8.7108218699       -3.4507012704        0.0676526728
 H          8.6346048918       -5.5900131909        0.1173392935
 H          6.1716080172       -5.6812695733        0.1304993087
 H          4.8604312768       -3.5788294582        0.0876537589
 H          4.6148388886        3.5934867644        0.0287966299
 H          5.7780623170        5.7799570815       -0.0598093645
 H          8.2359877756        5.8549553387       -0.2227103811
 H          9.5336470393        3.7608632817       -0.2961822260
 H          8.3598568887        1.5799570767       -0.2056360985
 H          2.1309634970        2.0409840560       -0.0099972938
 H         -0.3526640396        1.9505409207        0.0144849078
 H         -0.7262300373        0.3575848659        2.4077948312
 H         -1.8931178421        1.0215721845        4.4465366658
 H         -4.3655656160        1.1778712564        4.4723182134
 H         -5.6318182196        0.6398122455        2.4271912536
 H         -5.0071057125       -2.7537395825        1.0744450938
 H         -7.1831930342       -3.8552475854        1.4983490888
 H         -9.2855381824       -2.6829200671        1.0322712429
 H         -9.2714978939       -0.3830412072        0.1325273393
 H         -8.6968342512        1.9893171920       -0.7979080179
 H         -7.6491352299        4.0718563623       -1.6122553131
 H         -5.2090268633        4.2955313865       -1.6908770227
 H         -3.7507709119        2.4355250168       -0.9564415674
 H         -5.6402338440       -1.1633478721       -2.2255873303
 H         -4.3830637730       -2.0421644791       -4.1545241961
 H         -1.9058168168       -1.9938898340       -4.1114627202
 H         -0.7285922475       -1.1345466048       -2.1578871678
 H         -0.1892386965       -2.3114688904        0.1520047089
 H          2.2935166626       -2.2117089766        0.1343407269
 H          8.4686150227       -1.3173095884        0.0202414744
 H          9.7903234031       -3.4136692938        0.0618404036
  80
       -125.54152201
 C          8.1619655757       -4.6067968075       -0.0219331354
 C          6.7801812854       -4.6912399507        0.0522535938
 C          6.0154737595       -3.5411269907        0.0673425956
 C          6.6320103099       -2.2927043986        0.0087340845
 C          5.8261581524       -1.0724662583        0.0180515858
 N          6.4609613367        0.0951050550       -0.0269299899
 C          5.6932552211        1.1802141473       -0.0111568620
 C          6.3455308536        2.4881828613       -0.0575046960
 C          5.5853064953        3.6526373976        0.0334490268
 C          6.2025674871        4.8871438808       -0.0169154664
 C          7.5789667867        4.9708573460       -0.1600552447
 C          8.3397429165        3.8154515354       -0.2501919997
 C          7.7290030713        2.5775908768       -0.1981332447
 N          4.3640046959        1.1478897171        0.0381895293
 C          3.8122172281       -0.0606902403        0.0666332146
 C          2.3515232053       -0.1420095982        0.0931997738
 C          1.5874874661        1.0230301905        0.0554165798
 C          0.2105568582        0.9502554097        0.0642319851
 C         -0.4229095735       -0.2884308297        0.1109606571
 N         -1.8392625844       -0.3446699428        0.1151723237
 C         -2.5173592024        0.0637003243        1.2557684822
 C         -1.8134083670        0.3399125348        2.4310650782
 C         -2.4749998079        0.7426749584        3.5730746974
 C         -3.8536525134        0.8676416237        3.5736828969
 C         -4.5584934531        0.5744631482        2.4210574140
 C         -3.9100664112        0.1691827480        1.2644751397
 C         -4.7260409609       -0.1105217512        0.0257055495
 C         -5.9745306005       -0.8989820391        0.3575465315
 C         -6.0662595426       -2.1735807180        0.8712634015
 C         -7.3273276457       -2.7030551145        1.1115994621
 C         -8.4699845317       -1.9651369657        0.8426333848
 C         -8.3828478109       -0.6828122136        0.3238247098
 C         -7.1277394779       -0.1508176872        0.0797991630
 C         -6.7225570863        1.1411551956       -0.4527389841
 C         -7.4689984785        2.2254989879       -0.8829585030
 C         -6.8015303991        3.3443799101       -1.3554378158
 C         -5.4160350231        3.3812468219       -1.3990633013
 C         -4.6627831967        2.2972176798       -0.9685454971
 C         -5.3226518063        1.1842767766       -0.4976103485
 C         -3.9120209395       -0.7713436830       -1.0598365267
 C         -4.5679969650       -1.2700708915       -2.1747944985
 C         -3.8683315365       -1.8033743471       -3.2412837350
 C         -2.4850069793       -1.8140145077       -3.2019319347
 C         -1.8151710329       -1.3252041546       -2.0985887595
 C         -2.5158748494       -0.8174691984       -1.0015707694
 C          0.3372335823       -1.4538841662        0.1593220332
 C          1.7150708175       -1.3805004518        0.1486031739
 N          4.5019398146       -1.1967515537        0.0640144228
 C          8.0215240905       -2.2132198976       -0.0634849446
 C          8.7802076570       -3.3672650172       -0.0791606768
 H          8.7575748588       -5.5079020673       -0.0352521745
 H          6.3010184491       -5.6581865589        0.0982636952
 H          4.9392725419       -3.5880254710        0.1239652397
 H          4.5156528532        3.5683008542        0.1447633206
 H          5.6119588013        5.7888397884        0.0542241139
 H          8.0589902943        5.9377702288       -0.2013450780
 H          9.4119339242        3.8837791161       -0.3622582061
 H          8.3049659115        1.6682779779       -0.2679576438
 H          2.0923208442        1.9747892018        0.0116609596
 H         -0.3890060014        1.8482999624        0.0371874976
 H         -0.7398789087        0.2330011789        2.4485066861
 H         -1.9082721965        0.9554299398        4.4673124781
 H         -4.3752218716        1.1860722729        4.4630655445
 H         -5.6346765345        0.6629432716        2.4110277990
 H         -5.1763712037       -2.7484117449        1.0824974409
 H         -7.4198278090       -3.7011370399        1.5139630853
 H         -9.4405934905       -2.3961805441        1.0403463199
 H         -9.2755938844       -0.1117315008        0.1158039594
 H         -8.5482960004        2.2016213726       -0.8525274837
 H         -7.3673895431        4.1992668760       -1.6961296819
 H         -4.9176098013        4.2638939475       -1.7722679071
 H         -3.5835086813        2.3263838342       -1.0044897547
 H         -5.6466539291       -1.2281284234       -2.2051823422
 H         -4.3960082376       -2.1889194526       -4.0998946214
 H         -1.9193757743       -2.2022932584       -4.0358834041
 H         -0.7367488958       -1.3285877495       -2.0917150982
 H         -0.1630385341       -2.4100593337        0.2066143975
 H          2.3177592129       -2.2739929768        0.1861142361
 H          8.4852114613       -1.2403320631       -0.1071323320
 H          9.8570154241       -3.3042073774       -0.1367259474
  80
       -125.54150164
 C          7.7358470422       -4.8779670398        0.9294346939
 C          6.3524881929       -4.8462412527        0.8435235717
 C          5.6991969237       -3.6494297093        0.6230388285
 C          6.4303129028       -2.4708996442        0.4859348771
 C          5.7424147175       -1.2026289559        0.2491581380
 N          6.4828498132       -0.1151505002        0.0579838800
 C          5.8191356178        1.0140008299       -0.1693378970
 C          6.5925706678        2.2379335498       -0.3730007994
 C          5.9409160080        3.4550673648       -0.5634744251
 C          6.6748137756        4.6100728184       -0.7508653478
 C          8.0603211473        4.5614661202       -0.7501998758
 C          8.7132218591        3.3531546036       -0.5611178512
 C          7.9855195498        2.1943702999       -0.3727988016
 N          4.4915972663        1.0970091834       -0.2203612669
 C          3.8310074034       -0.0349960813       -0.0034893967
 C          2.3677773150        0.0106498931       -0.0284062940
 C          1.7099841697        1.1608076542       -0.4596121027
 C          0.3309125839        1.2053337724       -0.4776994263
 C         -0.4055255034        0.1015540025       -0.0590145731
 N         -1.8256352607        0.1447065838       -0.0637185131
 C         -2.4911298848        0.3865325081        1.1284065381
 C         -1.7699672098        0.6501212733        2.2961359985
 C         -2.4208345896        0.8963737958        3.4877894232
 C         -3.8041347284        0.8929362627        3.5415254370
 C         -4.5238384717        0.6446667461        2.3874122480
 C         -3.8871347402        0.3940853730        1.1815513112
 C         -4.7289853099        0.1132221561       -0.0398110007
 C         -5.5543906667       -1.1417214991        0.1758335671
 C         -5.1097178510       -2.4277948431        0.3859830831
 C         -6.0502020376       -3.4326737972        0.5695039641
 C         -7.4069986625       -3.1478912549        0.5425785102
 C         -7.8585248020       -1.8550215870        0.3297346485
 C         -6.9247231657       -0.8490720438        0.1450384897
 C         -7.0868218938        0.5768761856       -0.0952518043
 C         -8.2242663837        1.3568612033       -0.2209675110
 C         -8.0744665752        2.7143650381       -0.4571137143
 C         -6.8145415192        3.2833335922       -0.5645308159
 C         -5.6707367840        2.5060502166       -0.4385368644
 C         -5.8148205916        1.1565153685       -0.2052531830
 C         -3.9024119387       -0.0130147417       -1.2967343921
 C         -4.5556891516       -0.1683577474       -2.5097276635
 C         -3.8522058853       -0.3298899165       -3.6889254829
 C         -2.4685227006       -0.3501395200       -3.6526066267
 C         -1.8010646365       -0.1972161770       -2.4544463291
 C         -2.5054876638       -0.0141645436       -1.2615244400
 C          0.2477460834       -1.0481413951        0.3724506155
 C          1.6268641974       -1.0944818976        0.3847041013
 N          4.4115038036       -1.2053411694        0.2381233817
 C          7.8207377162       -2.5081420906        0.5723059780
 C          8.4675317022       -3.7083122905        0.7937127803
 H          8.2441057367       -5.8154018488        1.1022510028
 H          5.7846719678       -5.7592696011        0.9492610107
 H          4.6233775907       -3.6061390035        0.5514093399
 H          4.8623626930        3.4745308044       -0.5571367975
 H          6.1685621189        5.5530716572       -0.8968469085
 H          8.6318458485        5.4664564545       -0.8963417105
 H          9.7928271638        3.3182749326       -0.5608705093
 H          8.4763829922        1.2451482947       -0.2260799244
 H          2.2967132271        2.0084588964       -0.7757864007
 H         -0.1890098390        2.0906773994       -0.8131899703
 H         -0.6914152472        0.6648128616        2.2658751409
 H         -1.8416183599        1.0950689379        4.3772962444
 H         -4.3173003790        1.0837534046        4.4714329226
 H         -5.6034813750        0.6423906589        2.4157145378
 H         -4.0527456073       -2.6500665880        0.4073947800
 H         -5.7219256048       -4.4481722110        0.7359493102
 H         -8.1209531934       -3.9453349579        0.6893734386
 H         -8.9165342153       -1.6387425741        0.3094342871
 H         -9.2078630260        0.9183436295       -0.1385116643
 H         -8.9504645564        3.3382784093       -0.5591862261
 H         -6.7224289020        4.3436290869       -0.7488302871
 H         -4.6893309999        2.9495829962       -0.5230146495
 H         -5.6356458323       -0.1659030851       -2.5225510152
 H         -4.3782482856       -0.4479844219       -4.6237356013
 H         -1.9018753962       -0.4878768080       -4.5615276525
 H         -0.7224973183       -0.2241991979       -2.4393298739
 H         -0.3361943908       -1.8960109160        0.6990496823
 H          2.1497360230       -1.9775297844        0.7165682598
 H          8.3734724944       -1.5880561231        0.4651459204
 H          9.5452915554       -3.7358519453        0.8615162383
  80
       -125.54142789
 C          7.3837758076       -5.1559045426        0.2848781235
 C          6.0045476907       -5.0271972431        0.2318783126
 C          5.4273790131       -3.7736699359        0.1742250391
 C          6.2310500874       -2.6351285262        0.1695576637
 C          5.6235626585       -1.3060911977        0.1136195558
 N          6.4299183386       -0.2490756335        0.1111238839
 C          5.8371613658        0.9403108958        0.0682104241
 C          6.6862491748        2.1308502627        0.0660018890
 C          8.0735111664        2.0008672312        0.0955112446
 C          8.8735170310        3.1267941726        0.0944589581
 C          8.2989977504        4.3880728997        0.0647334011
 C          6.9195918078        4.5227361125        0.0347957519
 C          6.1136788338        3.4010228465        0.0348853273
 N          4.5180393852        1.1116145689        0.0294242902
 C          3.7881714766        0.0008348672        0.0285311598
 C          2.3320401221        0.1358161034       -0.0179560828
 C          1.7429090283        1.3983583886       -0.0491908060
 C          0.3695440748        1.5243322930       -0.0912949567
 C         -0.4343729889        0.3874441531       -0.0986928184
 N         -1.8467135384        0.4904739351       -0.1414082363
 C         -2.5457741732        0.9857372137        0.9522309425
 C         -1.8717482012        1.5100269192        2.0575660719
 C         -2.5685653422        2.0264100970        3.1314811914
 C         -3.9523161826        2.0273627350        3.1319174574
 C         -4.6268274498        1.4728310407        2.0597188608
 C         -3.9438755755        0.9453412874        0.9750171324
 C         -4.7209970707        0.2403707574       -0.1103907590
 C         -5.1980962694       -1.1082152134        0.4025235119
 C         -4.4394019834       -2.1686317555        0.8448775569
 C         -5.0916175608       -3.3195403937        1.2660920767
 C         -6.4756532919       -3.3991890851        1.2421583544
 C         -7.2422868079       -2.3331094276        0.7990992944
 C         -6.5969313722       -1.1827667900        0.3770176519
 C         -7.1172069288        0.0774274523       -0.1311226973
 C         -8.4162138038        0.5051753076       -0.3492433939
 C         -8.6189504379        1.7818742837       -0.8491411831
 C         -7.5467445052        2.6166256283       -1.1249922241
 C         -6.2420919877        2.1923164297       -0.9102896847
 C         -6.0352097740        0.9235808760       -0.4151038090
 C         -3.8934474916        0.0350005816       -1.3558782522
 C         -4.5192527161       -0.3129511445       -2.5427200894
 C         -3.7901274604       -0.5588423835       -3.6916230682
 C         -2.4110025912       -0.4460631934       -3.6554362118
 C         -1.7719031643       -0.0978342167       -2.4829551893
 C         -2.5005790904        0.1319376966       -1.3132598669
 C          0.1524016825       -0.8750241949       -0.0767100969
 C          1.5248985771       -1.0002410755       -0.0357960369
 N          4.2960807396       -1.2266571247        0.0691830985
 C          7.6170327165       -2.7699066703        0.2224004948
 C          8.1876951378       -4.0264160858        0.2798698317
 H          7.8325734153       -6.1374606623        0.3309186742
 H          5.3803766774       -5.9087869971        0.2360125774
 H          4.3560873570       -3.6547248693        0.1327637263
 H          8.5027527134        1.0116085615        0.1186220149
 H          9.9486403558        3.0246611219        0.1174908841
 H          8.9269364473        5.2671590983        0.0637088252
 H          6.4744244224        5.5067774619        0.0120328718
 H          5.0386000018        3.4869174603        0.0116255227
 H          2.3789664591        2.2692460749       -0.0445575465
 H         -0.0926205052        2.5000342172       -0.1254793903
 H         -0.7936593728        1.5036796918        2.0828669230
 H         -2.0233014313        2.4269213050        3.9731681144
 H         -4.5008427901        2.4353533303        3.9668240424
 H         -5.7059893302        1.4350100404        2.0644867425
 H         -3.3612391291       -2.1069506877        0.8664206653
 H         -4.5148125643       -4.1632128642        1.6160784863
 H         -6.9619332468       -4.3049640095        1.5742065463
 H         -8.3200686946       -2.4006202101        0.7835417839
 H         -9.2546784862       -0.1409371179       -0.1351535093
 H         -9.6254246608        2.1324302780       -1.0258033224
 H         -7.7291068843        3.6081505374       -1.5126787260
 H         -5.4069282711        2.8420255970       -1.1276528162
 H         -5.5956175503       -0.3966629201       -2.5602984279
 H         -4.2938753515       -0.8342139087       -4.6052576258
 H         -1.8263057731       -0.6256628068       -4.5453138957
 H         -0.6975106745        0.0012698630       -2.4716014616
 H         -0.4800132337       -1.7504582165       -0.0967676107
 H          1.9930555386       -1.9712891617       -0.0140782678
 H          8.2266515776       -1.8801092800        0.2176960322
 H          9.2621447863       -4.1295434167        0.3209500909
  80
       -125.54136613
 C          7.6149914872       -4.9849386836        0.8404722780
 C          6.2306267191       -4.9106616658        0.8334509671
 C          5.6030217723       -3.6954605139        0.6407278333
 C          6.3608895815       -2.5409566706        0.4533842294
 C          5.7002446015       -1.2535499156        0.2440433178
 N          6.4637154550       -0.1801220266        0.0643352614
 C          5.8242156340        0.9690774223       -0.1290233969
 C          6.6239789310        2.1775928393       -0.3227292634
 C          5.9994289887        3.4090618236       -0.5113360067
 C          6.7586044095        4.5487951602       -0.6919190747
 C          8.1426928773        4.4706286362       -0.6858735877
 C          8.7688357120        3.2478632241       -0.4988424885
 C          8.0157434564        2.1043296006       -0.3175839504
 N          4.4983558559        1.0849298285       -0.1564948903
 C          3.8137036976       -0.0371314524        0.0356037025
 C          2.3513344451        0.0401692271        0.0154902702
 C          1.7177855730        1.2524584663       -0.2511499034
 C          0.3400334796        1.3242536349       -0.2741204164
 C         -0.4187317244        0.1840320042       -0.0289156078
 N         -1.8394108789        0.2467699309       -0.0512342477
 C         -2.5157096962        0.5655432717        1.1157938911
 C         -1.8067661744        0.8695143362        2.2804650512
 C         -2.4717339352        1.1985256793        3.4442606972
 C         -3.8551833246        1.2350752615        3.4712120040
 C         -4.5628656058        0.9282715755        2.3232488469
 C         -3.9125839640        0.5928536112        1.1460888556
 C         -4.7295475399        0.1994240604       -0.0614941180
 C         -5.3905246504       -1.1453328665        0.1862294281
 C         -4.7871185421       -2.3608507156        0.4187532671
 C         -5.5934521258       -3.4728965758        0.6214192682
 C         -6.9752092849       -3.3619174184        0.5898137910
 C         -7.5859583248       -2.1398149850        0.3566616217
 C         -6.7864963990       -1.0271914982        0.1547179635
 C         -7.1260717425        0.3630736475       -0.1075796082
 C         -8.3527060696        0.9939984214       -0.2326265189
 C         -8.3747517425        2.3559222994       -0.4886696519
 C         -7.1961237230        3.0751283010       -0.6180938266
 C         -5.9636747995        2.4479265366       -0.4925490610
 C         -5.9366070118        1.0945560898       -0.2373358087
 C         -3.8960719808        0.1313507219       -1.3190153867
 C         -4.5306300515        0.0151608262       -2.5456665208
 C         -3.8079787387       -0.1152032261       -3.7177559034
 C         -2.4252571759       -0.1405334369       -3.6615446437
 C         -1.7757305417       -0.0237378514       -2.4493104875
 C         -2.4995839410        0.1198899997       -1.2632563246
 C          0.2091932862       -1.0266970051        0.2397504863
 C          1.5874909600       -1.0986388915        0.2608868584
 N          4.3695403836       -1.2258763069        0.2429804106
 C          7.7523007631       -2.6207698860        0.4625605362
 C          8.3734288391       -3.8392239110        0.6553057868
 H          8.1034100347       -5.9367550995        0.9902493604
 H          5.6420349961       -5.8046387275        0.9785950928
 H          4.5267950986       -3.6193474526        0.6304854562
 H          4.9215794267        3.4516510239       -0.5125225829
 H          6.2730546981        5.5025164785       -0.8381395075
 H          8.7341250101        5.3635126184       -0.8271173268
 H          9.8475830169        3.1897395212       -0.4953316508
 H          8.4857232343        1.1443847203       -0.1713576502
 H          2.3224309020        2.1252482340       -0.4393430652
 H         -0.1617426487        2.2581030056       -0.4813278184
 H         -0.7278369524        0.8457647332        2.2700523587
 H         -1.9036898680        1.4282824706        4.3335114717
 H         -4.3788020707        1.4932090619        4.3788189217
 H         -5.6426693416        0.9425302376        2.3363663742
 H         -3.7107034992       -2.4476040639        0.4429754051
 H         -5.1398999523       -4.4358553846        0.8053820661
 H         -7.5831810457       -4.2406627859        0.7490562912
 H         -8.6627867794       -2.0596082956        0.3335591965
 H         -9.2735044207        0.4382623298       -0.1333490320
 H         -9.3222690801        2.8650805607       -0.5892625486
 H         -7.2384625533        4.1356667033       -0.8185286626
 H         -5.0454243695        3.0080137988       -0.5931612502
 H         -5.6100725531        0.0212980012       -2.5769313563
 H         -4.3199059765       -0.2048030395       -4.6634845760
 H         -1.8452914356       -0.2514090715       -4.5657287722
 H         -0.6972702619       -0.0454495425       -2.4174906086
 H         -0.3922698293       -1.9034622624        0.4294262799
 H          2.0918777022       -2.0294807946        0.4659914119
 H          8.3259162411       -1.7190873521        0.3164775475
 H          9.4518280202       -3.9002743239        0.6611113888
  80
       -125.54129114
 C          7.2757539412       -5.1793485111        0.5587065747
 C          5.8999172865       -5.0161219714        0.6045994481
 C          5.3471076106       -3.7566478954        0.4782094074
 C          6.1722431252       -2.6468847510        0.3060727562
 C          5.5895301396       -1.3121767783        0.1747924859
 N          6.4136009788       -0.2706994980        0.1160873319
 C          5.8408320417        0.9246912732        0.0114026951
 C          6.7105393877        2.0981173005       -0.0587229184
 C          8.0938726198        1.9490457743        0.0218363244
 C          8.9139367009        3.0583173711       -0.0466824845
 C          8.3634098081        4.3219813876       -0.1951976616
 C          6.9878919181        4.4756167613       -0.2751758905
 C          6.1620129114        3.3704704391       -0.2079077844
 N          4.5245023847        1.1164926436       -0.0336804522
 C          3.7766548000        0.0192011958        0.0184561969
 C          2.3224045599        0.1721963491       -0.0349048722
 C          1.7445468010        1.4399085353       -0.0119888721
 C          0.3720482714        1.5789128131       -0.0505918520
 C         -0.4406795969        0.4500729308       -0.1117549002
 N         -1.8528359564        0.5624545179       -0.1457788073
 C         -2.5503695232        0.9835650787        0.9791841745
 C         -1.8765250092        1.4613280911        2.1052008233
 C         -2.5738705715        1.9013969793        3.2123636170
 C         -3.9571835849        1.8711084351        3.2247899468
 C         -4.6307013184        1.3644428113        2.1283274859
 C         -3.9472703031        0.9140555765        1.0099428402
 C         -4.7160326331        0.2530593231       -0.1091986656
 C         -5.1255377992       -1.1459127480        0.3213410730
 C         -4.3148826712       -2.2003989759        0.6771745413
 C         -4.9102979295       -3.4028134092        1.0344137426
 C         -6.2901190434       -3.5384672666        1.0338288470
 C         -7.1090999580       -2.4782274171        0.6789051752
 C         -6.5205677996       -1.2766759319        0.3215125021
 C         -7.1031800693       -0.0083539433       -0.0889690648
 C         -8.4236060500        0.3792578163       -0.2449905048
 C         -8.6900193964        1.6762760153       -0.6545258289
 C         -7.6590172933        2.5696712458       -0.9035861280
 C         -6.3333216708        2.1862252324       -0.7494136464
 C         -6.0632827824        0.8981017502       -0.3422074420
 C         -3.9014302885        0.1684663644       -1.3769971977
 C         -4.5316127177       -0.0902123634       -2.5839606903
 C         -3.8073894237       -0.2316737482       -3.7536978357
 C         -2.4292948370       -0.1071927446       -3.7172825986
 C         -1.7857307454        0.1541838747       -2.5246799113
 C         -2.5097055208        0.2832869602       -1.3370895598
 C          0.1353905812       -0.8166897621       -0.1509460650
 C          1.5064635550       -0.9551466840       -0.1100195482
 N          4.2638592715       -1.2128633835        0.1217165313
 C          7.5547634671       -2.8159475891        0.2621118503
 C          8.1007909200       -4.0785188086        0.3868745580
 H          7.7053867680       -6.1656986020        0.6561965487
 H          5.2591264216       -5.8752220756        0.7396677939
 H          4.2788022533       -3.6107090672        0.5141348592
 H          8.5042498023        0.9582057504        0.1380815871
 H          9.9858777307        2.9414030568        0.0170120282
 H          9.0069756616        5.1879512797       -0.2488081154
 H          6.5615765997        5.4612971242       -0.3917483322
 H          5.0898932566        3.4708265666       -0.2723674909
 H          2.3877805701        2.3043105336        0.0347696037
 H         -0.0824338266        2.5587930044       -0.0399972667
 H         -0.7983322368        1.4784711800        2.1196679119
 H         -2.0293719856        2.2678456159        4.0699312392
 H         -4.5061734982        2.2185131675        4.0864042437
 H         -5.7086817028        1.3030420775        2.1408657720
 H         -3.2398592915       -2.0958802609        0.6810922062
 H         -4.2919220370       -4.2422135856        1.3169423573
 H         -6.7318525135       -4.4836547418        1.3139634273
 H         -8.1833339639       -2.5893953762        0.6815675110
 H         -9.2295180256       -0.3134074884       -0.0527919322
 H         -9.7139259169        1.9965991829       -0.7812333162
 H         -7.8905429353        3.5752101659       -1.2228741502
 H         -5.5306200105        2.8823333571       -0.9445338063
 H         -5.6067737141       -0.1881578961       -2.6018280269
 H         -4.3144471000       -0.4379588782       -4.6836740502
 H         -1.8491307027       -0.2083554344       -4.6224017893
 H         -0.7122956480        0.2639434941       -2.5105994314
 H         -0.5039500324       -1.6848335554       -0.2168528870
 H          1.9672797424       -1.9296900806       -0.1342241420
 H          8.1809058634       -1.9478953766        0.1281193660
 H          9.1724754620       -4.2086381393        0.3524920560
  80
       -125.54115317
 C          7.2264204456       -5.1156205601        1.1114825699
 C          5.8503883648       -4.9520504579        1.0696942954
 C          5.3081352865       -3.7076222412        0.8151289968
 C          6.1439861060       -2.6132234721        0.6003537444
 C          5.5719150192       -1.2958717855        0.3257180761
 N          6.4040474120       -0.2898784177        0.0747563086
 C          5.8408268722        0.8878620635       -0.1769749673
 C          6.7194779075        2.0273254704       -0.4370531498
 C          8.0987427931        1.8439093811       -0.5144306951
 C          8.9269825952        2.9223357454       -0.7565978409
 C          8.3887954217        4.1891997985       -0.9212476213
 C          7.0174125797        4.3769335823       -0.8444615754
 C          6.1831846876        3.3025802259       -0.6043311428
 N          4.5256547707        1.0914260863       -0.2070502375
 C          3.7693968520        0.0316100944        0.0577742086
 C          2.3156140672        0.1979090627        0.0334429712
 C          1.7486881857        1.3797999830       -0.4385400651
 C          0.3766625884        1.5237852627       -0.4806551536
 C         -0.4454350026        0.4870682528       -0.0480797587
 N         -1.8579387213        0.6025967397       -0.0899150947
 C         -2.5432092235        0.8014232775        1.1007082331
 C         -1.8474697270        1.1417352899        2.2626697844
 C         -2.5213912930        1.3660765068        3.4462567772
 C         -3.9013261716        1.2690845247        3.4926525098
 C         -4.5970050853        0.9394933572        2.3434256626
 C         -3.9363432595        0.7047738425        1.1481403693
 C         -4.7146671322        0.2707887574       -0.0702103088
 C         -5.0835880763       -1.1976489746        0.0653142295
 C         -4.2424047229       -2.2830285035        0.1657456814
 C         -4.8031652092       -3.5474578701        0.2850367128
 C         -6.1795055702       -3.7139475930        0.3013754970
 C         -7.0291162622       -2.6239257893        0.1987299883
 C         -6.4750458075       -1.3602758071        0.0804976315
 C         -7.0943720088       -0.0497968392       -0.0431983248
 C         -8.4261572166        0.3284921379       -0.0782506606
 C         -8.7300827354        1.6747233725       -0.2049360658
 C         -7.7248286523        2.6255733210       -0.2957710311
 C         -6.3879081458        2.2519766169       -0.2612355179
 C         -6.0804661840        0.9149874234       -0.1348287817
 C         -3.9220318989        0.4684648614       -1.3406772406
 C         -4.5767920167        0.4525578028       -2.5618508370
 C         -3.8756442912        0.5174298496       -3.7522433756
 C         -2.4935754064        0.5740523928       -3.7201389669
 C         -1.8243879133        0.5942862288       -2.5128978268
 C         -2.5266599731        0.5621610751       -1.3064448997
 C          0.1193496362       -0.6867866727        0.4416010363
 C          1.4900173101       -0.8325231733        0.4783873111
 N          4.2468752329       -1.1761551210        0.3389999501
 C          7.5264776122       -2.7824415793        0.6442225907
 C          8.0620013924       -4.0299999013        0.8985420161
 H          7.6479194154       -6.0901021849        1.3109232944
 H          5.2014405827       -5.7994594993        1.2354418453
 H          4.2398992843       -3.5621486135        0.7760387700
 H          8.4994707281        0.8509366484       -0.3845550790
 H          9.9957914683        2.7786896199       -0.8177496203
 H          9.0388770143        5.0313069852       -1.1089405402
 H          6.6008899084        5.3653884338       -0.9720021141
 H          5.1139753352        3.4302404137       -0.5388096415
 H          2.3996285997        2.1730324328       -0.7706349713
 H         -0.0701454718        2.4379250036       -0.8432561559
 H         -0.7727482423        1.2347880324        2.2331868201
 H         -1.9637965209        1.6249853000        4.3338745487
 H         -4.4322131993        1.4455438181        4.4155746638
 H         -5.6729339946        0.8537181528        2.3720752350
 H         -3.1700952468       -2.1559832193        0.1490309920
 H         -4.1604112446       -4.4119058667        0.3658791803
 H         -6.5939384736       -4.7071738580        0.3950466070
 H         -8.1004540573       -2.7596151133        0.2105157985
 H         -9.2125389966       -0.4083654618       -0.0079984895
 H         -9.7634353100        1.9882101415       -0.2343601787
 H         -7.9854714664        3.6689715915       -0.3949561161
 H         -5.6049820884        2.9929359032       -0.3313891899
 H         -5.6536894512        0.3756090677       -2.5758927907
 H         -4.4024265217        0.5044783969       -4.6938909596
 H         -1.9281442329        0.6006419287       -4.6397912446
 H         -0.7463811191        0.6251027563       -2.5066833123
 H         -0.5277904768       -1.4777599156        0.7911624345
 H          1.9421998376       -1.7393418081        0.8469011691
 H          8.1611418182       -1.9264406833        0.4765661496
 H          9.1337486244       -4.1603112291        0.9319942057
