  80
       -125.54160990
 C          8.0609115074       -4.6748569269        0.0986991930
 C          6.6755388950       -4.7260979820        0.1060409399
 C          5.9389139468       -3.5579704048        0.0824444788
 C          6.5874349346       -2.3248929105        0.0510649175
 C          5.8112991054       -1.0858455278        0.0271482045
 N          6.4733382192        0.0660005551       -0.0201834164
 C          5.7310965832        1.1689618095       -0.0314792340
 C          6.4189329876        2.4584070703       -0.0827558991
 C          5.6898776842        3.6451869727       -0.0431044731
 C          6.3443198108        4.8605811945       -0.0926822376
 C          7.7268204372        4.9029843573       -0.1836621290
 C          8.4566491213        3.7251311124       -0.2241764906
 C          7.8086370812        2.5064346286       -0.1735144906
 N          4.4006730196        1.1688661932       -0.0001364133
 C          3.8209652901       -0.0265398420        0.0364634858
 C          2.3587025444       -0.0799655665        0.0565058311
 C          1.6121930541        1.0964072852        0.0261972576
 C          0.2337836428        1.0437713152        0.0354108031
 C         -0.4173961381       -0.1858194156        0.0747389378
 N         -1.8346629509       -0.2281007370        0.0787976688
 C         -2.5108068476        0.1470450045        1.2318844698
 C         -1.8025527822        0.4325010163        2.4024038125
 C         -2.4632193353        0.8025259031        3.5559876184
 C         -3.8449042662        0.8861282745        3.5732856209
 C         -4.5532664654        0.5848943788        2.4249892585
 C         -3.9060247290        0.2117558958        1.2569165945
 C         -4.7309695412       -0.0876975639        0.0296003650
 C         -5.9257102753       -0.9544406145        0.3662639902
 C         -5.9330772067       -2.2368196502        0.8684793425
 C         -7.1565544452       -2.8498183418        1.1046283317
 C         -8.3453397702       -2.1863704498        0.8410405810
 C         -8.3428557477       -0.8955957953        0.3360806157
 C         -7.1254625919       -0.2793953750        0.0988349636
 C         -6.8055649659        1.0427882106       -0.4175769143
 C         -7.6213761266        2.0832095399       -0.8299053554
 C         -7.0285833350        3.2498682496       -1.2861339639
 C         -5.6484923167        3.3769153640       -1.3306553567
 C         -4.8258719042        2.3368926691       -0.9188883541
 C         -5.4113710818        1.1764280669       -0.4646367568
 C         -3.9075001724       -0.6876447967       -1.0845726189
 C         -4.5605861118       -1.1757898302       -2.2060117161
 C         -3.8573330730       -1.6634787592       -3.2916300383
 C         -2.4737653087       -1.6395735815       -3.2641057581
 C         -1.8068809786       -1.1591942137       -2.1554356577
 C         -2.5103815434       -0.6962627960       -1.0402643517
 C          0.3255383894       -1.3626390665        0.1136582971
 C          1.7038618743       -1.3094231934        0.1031869218
 N          4.4841273713       -1.1781407044        0.0528165545
 C          7.9802224555       -2.2787739360        0.0438358393
 C          8.7108218699       -3.4507012704        0.0676526728
 H          8.6346048918       -5.5900131909        0.1173392935
 H          6.1716080172       -5.6812695733        0.1304993087
 H          4.8604312768       -3.5788294582        0.0876537589
 H          4.6148388886        3.5934867644        0.0287966299
 H          5.7780623170        5.7799570815       -0.0598093645
 H          8.2359877756        5.8549553387       -0.2227103811
 H          9.5336470393        3.7608632817       -0.2961822260
 H          8.3598568887        1.5799570767       -0.2056360985
 H          2.1309634970        2.0409840560       -0.0099972938
 H         -0.3526640396        1.9505409207        0.0144849078
 H         -0.7262300373        0.3575848659        2.4077948312
 H         -1.8931178421        1.0215721845        4.4465366658
 H         -4.3655656160        1.1778712564        4.4723182134
 H         -5.6318182196        0.6398122455        2.4271912536
 H         -5.0071057125       -2.7537395825        1.0744450938
 H         -7.1831930342       -3.8552475854        1.4983490888
 H         -9.2855381824       -2.6829200671        1.0322712429
 H         -9.2714978939       -0.3830412072        0.1325273393
 H         -8.6968342512        1.9893171920       -0.7979080179
 H         -7.6491352299        4.0718563623       -1.6122553131
 H         -5.2090268633        4.2955313865       -1.6908770227
 H         -3.7507709119        2.4355250168       -0.9564415674
 H         -5.6402338440       -1.1633478721       -2.2255873303
 H         -4.3830637730       -2.0421644791       -4.1545241961
 H         -1.9058168168       -1.9938898340       -4.1114627202
 H         -0.7285922475       -1.1345466048       -2.1578871678
 H         -0.1892386965       -2.3114688904        0.1520047089
 H          2.2935166626       -2.2117089766        0.1343407269
 H          8.4686150227       -1.3173095884        0.0202414744
 H          9.7903234031       -3.4136692938        0.0618404036
