  76
       -117.22126759
 O          7.4170068974        3.1979668279       -1.2014071007
 C          7.5206101201        2.0945909512       -0.6061841352
 C          8.8219425225        1.6811661741       -0.0544271909
 C          9.2366549182        0.3456313068       -0.0524579861
 C         10.4789407754        0.0042667249        0.4427738569
 C         11.3337517505        0.9798937733        0.9347330823
 C         10.9440869445        2.3108150978        0.9030965150
 C          9.7073778673        2.6623622844        0.4044152697
 C          6.3777630793        1.2310986531       -0.4359885204
 C          6.2961785787        0.2149802199        0.5426358738
 C          5.1752629467       -0.5635160888        0.6581854942
 C          4.0672276193       -0.3518701432       -0.1774197370
 N          2.9314907469       -1.1534628555       -0.0642323096
 C          2.9215921382       -2.5378038921       -0.0231573588
 C          3.9815067264       -3.4290594719       -0.0913175804
 C          3.6919252421       -4.7820873555       -0.0530934940
 C          2.3813374828       -5.2407623534        0.0416832177
 C          1.3176307824       -4.3567914646        0.0806321774
 C          1.5841189301       -2.9966076943        0.0406212025
 C          0.7522476678       -1.8234214350        0.0351679044
 C         -0.6114470575       -1.6300253911        0.0756377963
 C         -1.1266838400       -0.3277437686        0.0607733602
 C         -2.5599971550       -0.0975303317        0.0676646441
 C         -3.1178918950        1.0344439170       -0.5489210982
 C         -4.4729479020        1.2538407404       -0.5558594697
 C         -5.3461384357        0.3471700595        0.0595657758
 N         -6.7178864144        0.5674282514        0.0539809718
 C         -7.6074281819       -0.5107383266       -0.0218126854
 C         -8.8075503485       -0.4863244527        0.6900446603
 C         -9.6850849886       -1.5492679071        0.6056994604
 C         -9.3810756304       -2.6495716149       -0.1804412895
 C         -8.1895657699       -2.6789874840       -0.8878379878
 C         -7.3071156938       -1.6193143997       -0.8150400774
 C         -7.2182866020        1.8743144512        0.1242630756
 C         -6.6000410245        2.8214178434        0.9415924267
 C         -7.0974258148        4.1079380954        1.0098117869
 C         -8.2145333188        4.4676503629        0.2725001576
 C         -8.8329780723        3.5293417143       -0.5388010026
 C         -8.3415006962        2.2410801253       -0.6177935409
 C         -4.8018663588       -0.7849143733        0.6809038091
 C         -3.4456775334       -0.9979276465        0.6819693768
 C         -0.2258447123        0.7618652279        0.0441518581
 C          1.1363572957        0.5900331125        0.0099035452
 C          1.6375526048       -0.7106542507       -0.0259368235
 C          4.1108896978        0.6957811511       -1.1125424466
 C          5.2281907247        1.4738561321       -1.2275517643
 H          8.5968017184       -0.4155880234       -0.4727065991
 H         10.7893269613       -1.0311226659        0.4364390208
 H         12.3021679665        0.7054354315        1.3258111604
 H         11.6109762479        3.0779511849        1.2699179032
 H          9.3956166323        3.6950864176        0.3721598204
 H          7.1117204738        0.0756062795        1.2344960637
 H          5.1151378099       -1.3172176570        1.4300739560
 H          4.9985655131       -3.0814687182       -0.1839223644
 H          4.5004713141       -5.4956231292       -0.1022663668
 H          2.1948247455       -6.3036255407        0.0729085834
 H          0.3008500056       -4.7152121277        0.1345951258
 H         -1.2740284526       -2.4818442011        0.0849147928
 H         -2.4747418296        1.7282661222       -1.0681738457
 H         -4.8790277907        2.1185324333       -1.0604746074
 H         -9.0385576964        0.3654885466        1.3132071837
 H        -10.6091641612       -1.5211757509        1.1632636996
 H        -10.0690021031       -3.4784912679       -0.2423288106
 H         -7.9492218594       -3.5288681221       -1.5087359997
 H         -6.3864603123       -1.6336732624       -1.3802351769
 H         -5.7386848914        2.5352759134        1.5277427530
 H         -6.6146514463        4.8311474709        1.6496637358
 H         -8.6010565904        5.4734315149        0.3300964080
 H         -9.6994925704        3.8047217856       -1.1210462092
 H         -8.8150386356        1.5128685544       -1.2603017755
 H         -5.4601481988       -1.4790188470        1.1831487516
 H         -3.0536548102       -1.8569765813        1.2047588401
 H         -0.6207942159        1.7644292510        0.1003622608
 H          1.8021410866        1.4389571163        0.0305952922
 H          3.2661343870        0.8515922919       -1.7674463757
 H          5.2787955047        2.2736359244       -1.9498824124
