  58
        -91.81573074
 C          7.8178662111       -1.5894316561       -0.4664457708
 C          7.4071405879       -0.6626545096        0.4768871396
 C          6.0711582491       -0.3232977270        0.5856698786
 C          5.1248335670       -0.9113997451       -0.2505767333
 C          3.6972340941       -0.5756985528       -0.1665010169
 C          3.2670640567        0.6878183643        0.2983512738
 C          1.9271031875        0.9836443192        0.3559541417
 C          1.4821860953        2.3249093107        0.7677209186
 C          1.9400490890        2.8805140618        1.9586821192
 C          1.5378272626        4.1472081646        2.3405572852
 C          0.6818888670        4.8781671471        1.5336369083
 C          0.2318953317        4.3381394143        0.3402473497
 C          0.6277326045        3.0697421509       -0.0414709450
 C          0.9981418662       -0.0258081177       -0.0191381184
 C         -0.3952979162        0.1168267485        0.0894901160
 C         -1.2355738608       -0.8835952260       -0.3367521946
 N         -2.6347593744       -0.7159495411       -0.2567084829
 C         -3.2665016708        0.3163740167       -0.9522835752
 C         -2.5797591343        1.1628896515       -1.8135383574
 C         -3.2373215556        2.1814753474       -2.4862187654
 C         -4.5945888963        2.3648256504       -2.3193170512
 C         -5.3023455102        1.5055326166       -1.4914956154
 C         -4.6516604682        0.4866302877       -0.8213619385
 O         -5.4264724398       -0.3437427690       -0.0501801399
 C         -4.7910151823       -1.3604853224        0.6196171549
 C         -5.5796190160       -2.1867259442        1.3976984724
 C         -5.0060226102       -3.2155869082        2.1309918888
 C         -3.6385217793       -3.3955245205        2.0943722472
 C         -2.8427288678       -2.5701053094        1.3141452380
 C         -3.4053184879       -1.5582291377        0.5463656356
 C         -0.7061841936       -2.0775561481       -0.8693557735
 C          0.6438418169       -2.2610499784       -0.9400648930
 C          1.5322304675       -1.2506709163       -0.5085500984
 N          2.8499473846       -1.4919150516       -0.5792521251
 C          5.5464054522       -1.8555239936       -1.1859313447
 C          6.8821955348       -2.1881650771       -1.2950859865
 H          8.8631972910       -1.8472232111       -0.5517565703
 H          8.1318044219       -0.2035364858        1.1338131483
 H          5.7644210524        0.3835373301        1.3426662953
 H          3.9927625542        1.4446360592        0.5536169920
 H          2.5994126931        2.3055218881        2.5930903097
 H          1.8935372689        4.5657171982        3.2705794229
 H          0.3690671536        5.8675438867        1.8321543318
 H         -0.4300414402        4.9062998938       -0.2966198837
 H          0.2916833355        2.6602628494       -0.9828844634
 H         -0.8092361328        1.0186387261        0.5163449875
 H         -1.5228944514        1.0160500877       -1.9697207546
 H         -2.6761977601        2.8258556312       -3.1458044886
 H         -5.1107891477        3.1587484427       -2.8353647813
 H         -6.3672825572        1.6064026404       -1.3566517961
 H         -6.6421859637       -2.0048767972        1.4212475211
 H         -5.6300829177       -3.8573116353        2.7326497837
 H         -3.1745680657       -4.1772888609        2.6758345891
 H         -1.7735253608       -2.7108648821        1.3090096185
 H         -1.3882758745       -2.8404798958       -1.2148571757
 H          1.0690883429       -3.1738332503       -1.3263396323
 H          4.8049065802       -2.3141954873       -1.8210078572
 H          7.1979754042       -2.9160624210       -2.0279123483
