58
 energy: -91.853225207730 gnorm: 0.000049200571 xtb: 6.7.1 (edcfbbe)
C            7.81304051218578       -1.61408661264694       -0.48387606704631
C            7.40091247080880       -0.70737582991095        0.47893591259523
C            6.06677485884197       -0.35783400553915        0.58245912768984
C            5.12337768874649       -0.91522648260129       -0.27872798757881
C            3.69716566179117       -0.56997661015745       -0.19508603093106
C            3.27283239171366        0.68800293724146        0.28970593830858
C            1.93427771506950        0.99079371910699        0.35268863456970
C            1.49751595385597        2.32269807022242        0.80545939873545
C            1.93378828226350        2.82178049674876        2.02956344188028
C            1.53733990422064        4.07676277755859        2.45517693139125
C            0.70937846054568        4.85194309192887        1.65963967077587
C            0.28242512155092        4.36847904220991        0.43351668237328
C            0.67130394340742        3.11112957286163        0.00833374771826
C            0.99938402195352       -0.00605544595381       -0.04287594795556
C           -0.39443493086835        0.14360592774584        0.06502774252307
C           -1.23894171781706       -0.85250820643046       -0.36183706936392
N           -2.64079455351887       -0.68754025913394       -0.26888704158320
C           -3.29318516014365        0.30323722113265       -1.00479533854953
C           -2.61996610934573        1.14338982726954       -1.88320035652611
C           -3.29892744518122        2.11656871653396       -2.60084972591070
C           -4.66443234077281        2.26067965495497       -2.46177802029221
C           -5.35693232427992        1.41167301173169       -1.60987584527531
C           -4.68384810820762        0.43951656541230       -0.89381510377188
O           -5.44503935935678       -0.38206538589310       -0.09363303416546
C           -4.78374801559610       -1.34749498047656        0.63148807838012
C           -5.55311715122554       -2.15339686176966        1.44935689119932
C           -4.95492946149292       -3.13134856083381        2.23194013625007
C           -3.58343937286717       -3.28234776458408        2.20004055975521
C           -2.80748305630987       -2.47587802051294        1.38073624245565
C           -3.39341472226723       -1.51229967952344        0.56875700997255
C           -0.71657894576168       -2.04555561660305       -0.90307883179472
C            0.63279948682886       -2.23227291789732       -0.98320035164631
C            1.52625698365749       -1.22855203261330       -0.54586960407029
N            2.84404673258798       -1.47701755249975       -0.61961285985929
C            5.54652021071629       -1.83857435400145       -1.23471791739026
C            6.88067026382145       -2.18143258814399       -1.33847898520724
H            8.85655541399334       -1.88143543224624       -0.56418930976912
H            8.12260202240960       -0.27202241105236        1.15513804875693
H            5.75813161970358        0.33278096839705        1.35340209465200
H            4.00284797509282        1.43411321053201        0.56354761528778
H            2.57130347103030        2.21208806662229        2.65409092191394
H            1.87548183919718        4.45097716736735        3.41062510564697
H            0.40055743319101        5.83192334275922        1.99267551860974
H           -0.35679841357592        4.97160401364173       -0.19476161475574
H            0.35171240126287        2.74377781272933       -0.95621648653426
H           -0.80306765863874        1.04692621187323        0.49380881267895
H           -1.55565896734976        1.02796791177377       -2.01381821732520
H           -2.74789266293795        2.75707581888268       -3.27261465803763
H           -5.19857587698258        3.01773076072934       -3.01403847749066
H           -6.42674249160148        1.48442381774650       -1.49090926546875
H           -6.62047506681130       -1.99700024318492        1.46335954078468
H           -5.56428993567339       -3.75782060645101        2.86416541109666
H           -3.10118272077980       -4.02686863775807        2.81485466691670
H           -1.73527096891044       -2.59446672631406        1.37531131179617
H           -1.40228029790868       -2.80718335114424       -1.24448204129087
H            1.05297125059682       -3.14399948010451       -1.37821204646219
H            4.80855076705604       -2.27362874355984       -1.89100123585864
H            7.19678655582947       -2.89331288641753       -2.08716600069027
