58
 energy: -91.779028485778 gnorm: 0.000041553667 xtb: 6.7.1 (edcfbbe)
C            7.81706773216895       -1.65573329957570       -0.41892993228900
C            7.48390582155133       -0.46436499324167        0.20951115508106
C            6.16530541581046       -0.07809049069860        0.33175827116302
C            5.13120292011065       -0.88141105365082       -0.16896382416216
C            3.72843398780437       -0.53396289083120       -0.06404984636531
C            3.25846749440467        0.67509170117928        0.43949619429911
C            1.90660427366286        1.00327415614973        0.40747560041671
C            1.48278198056629        2.35362931691441        0.75512887143296
C            2.04572901680663        3.01378398384114        1.85446174086228
C            1.65555449199390        4.29511604719925        2.18710496789401
C            0.70312382851863        4.95916818972037        1.42831059729671
C            0.15081043497613        4.32687620015288        0.32431133500441
C            0.53599484093828        3.04448778918701       -0.01017494016782
C            0.97653221231210        0.00654101384283       -0.04515341071576
C           -0.39991192947104        0.11975858912201        0.04932455488084
C           -1.25368609978898       -0.90928022466601       -0.39706005395592
N           -2.64763176537962       -0.74851016518795       -0.28426525555482
C           -3.27410577069788        0.32460740129192       -0.90351135861220
C           -2.58832569974266        1.19818109482137       -1.74890860679078
C           -3.23780791088924        2.26710468699341       -2.33615911121261
C           -4.58926718279991        2.47922172588838       -2.11114798866770
C           -5.29979492578399        1.59670569435574       -1.31610310954593
C           -4.65521169993554        0.52181550279600       -0.72370990661182
O           -5.41825747861336       -0.33508219015088        0.01459049587760
C           -4.80064238077555       -1.41216371479724        0.58237405404676
C           -5.59639779601293       -2.28057562254331        1.31384492772083
C           -5.03020201401203       -3.36843385066897        1.95444469576842
C           -3.66046620195809       -3.57126998470570        1.88107183358698
C           -2.86067685089471       -2.71314822333968        1.15066305794432
C           -3.41570571327453       -1.63219660931068        0.46419623821614
C           -0.70911513092205       -2.07325964116448       -0.93029427203918
C            0.65718224011577       -2.23356349603185       -0.98855344165078
C            1.53912385017263       -1.22946268691121       -0.52065244727559
N            2.83703445304752       -1.45887097993207       -0.50291950324969
C            5.48778679017035       -2.08475719060863       -0.79959976495153
C            6.80649500912798       -2.46290377136111       -0.92278650406609
H            8.85172749769849       -1.95151177856105       -0.51277162977099
H            8.26448701816721        0.17004967903557        0.60644640111066
H            5.94104371932666        0.85553276924973        0.82579509309744
H            3.96346544423641        1.41795830244909        0.77807809573294
H            2.77287446564281        2.49838278828566        2.46606202312925
H            2.09392416125364        4.78070350306526        3.04795237614238
H            0.40008953777807        5.96215834860176        1.69089437183942
H           -0.57845050131241        4.84266369247738       -0.28451907301858
H            0.13257652866094        2.57906633743890       -0.89712556341650
H           -0.83406041085313        0.97607997844458        0.54415344667610
H           -1.54399736758335        1.02290296676822       -1.94921650737534
H           -2.68468676152993        2.93173946991183       -2.98125208047467
H           -5.09465398038921        3.31517458681182       -2.56769713577419
H           -6.35783003484315        1.71541591525228       -1.14541375214779
H           -6.65383002368421       -2.07751907629554        1.37090289921662
H           -5.65387761582859       -4.04277841481278        2.51914356709647
H           -3.20630736255101       -4.40091729786017        2.39974802836384
H           -1.79483283206778       -2.86968081124446        1.11603841617546
H           -1.36312317018639       -2.84325536416541       -1.31266998681988
H            1.08931177227013       -3.12096816265007       -1.42256446434026
H            4.69522631900512       -2.71018505516514       -1.18238824681936
H            7.05489332045010       -3.39431429847324       -1.41256823793743
