  83
  -134.208046890000       0.237542520194940      !
 C          6.4450558979        3.2265900385        1.1347406052
 C          5.0871865731        3.0248688695        1.3148397783
 C          4.5325445590        1.7707841646        1.1369055592
 C          5.3247364766        0.6879745568        0.7529251643
 C          6.7085334555        0.8964515900        0.6157943569
 C          7.2564899608        2.1551793058        0.7987902862
 O          7.5762895668       -0.1204402548        0.3296360063
 C          7.0495151421       -1.3666969864        0.1345688931
 C          7.9341572273       -2.3851537032       -0.1757245675
 C          7.4633616553       -3.6632179617       -0.4316584669
 C          6.1002445662       -3.9083865342       -0.4049957570
 C          5.2108741506       -2.8977546746       -0.0925311749
 C          5.6679670054       -1.6155666716        0.2165560925
 N          4.8006268088       -0.5849395212        0.5547154305
 C          3.4268027654       -0.8274654354        0.7134761748
 C          2.9819521195       -1.7856935857        1.6503120578
 C          1.6511193933       -2.0156229050        1.8569144778
 C          0.6947409029       -1.2832195845        1.1101013905
 C          1.1642092901       -0.3234253751        0.1537452247
 C          2.4870562668       -0.0914077829       -0.0458636000
 C         -0.0074488908        0.3569912600       -0.5135749621
 C          0.0053247203        1.8519698903       -0.3036197932
 C          0.0067592696        2.5453878775        0.8865304582
 C          0.0298009808        3.9332818111        0.8442719620
 C          0.0521471757        4.6051112720       -0.3693195011
 C          0.0500133305        3.9108819218       -1.5684695845
 C          0.0258409843        2.5256325740       -1.5338289014
 C          0.0179739781        1.5360276310       -2.5980800141
 C          0.0282858492        1.6762883211       -3.9767368825
 C          0.0158793485        0.5336724994       -4.7602303056
 C         -0.0068126473       -0.7269060145       -4.1816546730
 C         -0.0172221090       -0.8749237192       -2.8007311304
 C         -0.0047530523        0.2581207966       -2.0178916611
 C         -1.1774033231       -0.3205248446        0.1580408489
 C         -2.5009204867       -0.0874127610       -0.0360391813
 C         -3.4386819637       -0.8267654439        0.7228583518
 N         -4.8127805329       -0.5825107341        0.5666209048
 C         -5.3332756887        0.6904436511        0.7719010027
 C         -4.5399528103        1.7640266869        1.1788442754
 C         -5.0895960545        3.0192474203        1.3632694288
 C         -6.4435275645        3.2311406946        1.1658947946
 C         -7.2565106718        2.1684890947        0.8062755087
 C         -6.7136289176        0.9085650840        0.6176059763
 O         -7.5824416340       -0.1005377390        0.3076193225
 C         -7.0598572980       -1.3484649469        0.1115241127
 C         -7.9460890293       -2.3589619559       -0.2199672340
 C         -7.4796668591       -3.6382068775       -0.4774940714
 C         -6.1190917273       -3.8928915534       -0.4295621385
 C         -5.2280786277       -2.8900689021       -0.0963784843
 C         -5.6814116859       -1.6067218163        0.2123063376
 C         -2.9920533589       -1.7874884733        1.6557958911
 C         -1.6605121460       -2.0171210536        1.8590137027
 C         -0.7062023168       -1.2827429600        1.1115563471
 H          6.8775189588        4.2049659589        1.2710537199
 H          4.4487493161        3.8456539613        1.6026238432
 H          3.4783424905        1.6244240274        1.3041295533
 H          8.3222752314        2.2695783443        0.6816411809
 H          8.9860234912       -2.1528246701       -0.2197996090
 H          8.1579195272       -4.4532834272       -0.6682123834
 H          5.7218279780       -4.8924381029       -0.6344226498
 H          4.1504623326       -3.0899311862       -0.0955024129
 H          3.7233362224       -2.3124713327        2.2349285372
 H          1.3242035367       -2.7308938367        2.5961713363
 H          2.8307880266        0.6173508872       -0.7857644463
 H         -0.0085940508        2.0191155213        1.8303893220
 H          0.0317001311        4.4964647750        1.7663163117
 H          0.0715566992        5.6854550447       -0.3781035966
 H          0.0674193338        4.4404811172       -2.5096880866
 H          0.0458122806        2.6553645892       -4.4327004061
 H          0.0241683088        0.6243864856       -5.8369344401
 H         -0.0158273744       -1.6032474192       -4.8133151409
 H         -0.0344774697       -1.8560741529       -2.3488179077
 H         -2.8474769430        0.6254940144       -0.7706682923
 H         -3.4890445505        1.6084497692        1.3585405618
 H         -4.4507833360        3.8329010978        1.6701802407
 H         -6.8718222641        4.2108446669        1.3056440799
 H         -8.3194719639        2.2912929268        0.6735983196
 H         -8.9956072123       -2.1191414894       -0.2796346792
 H         -8.1755600210       -4.4218093596       -0.7312136063
 H         -5.7435529514       -4.8782435177       -0.6581625506
 H         -4.1690707376       -3.0896050349       -0.0837450044
 H         -3.7319960601       -2.3166219828        2.2401570704
 H         -1.3314504988       -2.7344465388        2.5953447751
  83
  -134.208044070000       0.236834723913039      !
 C          7.4725197261        2.0565611593        3.0009140564
 C          6.1089166093        2.1583046275        3.2228524857
 C          5.2185766192        1.4045750163        2.4817754227
 C          5.6754128624        0.5167325546        1.5065138124
 C          7.0581737629        0.4577111518        1.2582159139
 C          7.9435325327        1.2141069211        2.0065381835
 O          7.5854062308       -0.3205987927        0.2654758686
 C          6.7160683593       -1.0509051851       -0.4962335382
 C          7.2642675184       -1.8265656105       -1.5042881121
 C          6.4498157600       -2.6250368022       -2.2905518468
 C          5.0877136227       -2.6626148155       -2.0455041175
 C          4.5327007820       -1.8941217998       -1.0387418604
 C          5.3296206736       -1.0520452068       -0.2625888527
 N          4.8063575398       -0.2646563321        0.7568995407
 C          3.4316032613       -0.2830990176        1.0446626757
 C          2.9870021956       -0.6672317189        2.3283324125
 C          1.6561761470       -0.7382873427        2.6286489116
 C          0.7013168088       -0.4066893795        1.6353739217
 C          1.1706184307        0.0032405010        0.3436700456
 C          2.4938121482        0.0609314812        0.0431636424
 C         -0.0011345637        0.3182440923       -0.5554299343
 C          0.0033259708        1.7317923004       -1.0831513448
 C          0.0147818878        2.9101952085       -0.3704954730
 C          0.0200313668        4.1088117704       -1.0719530989
 C          0.0141778522        4.1193515288       -2.4591454839
 C          0.0022280328        2.9361878848       -3.1799626318
 C         -0.0029804376        1.7363858396       -2.4863973197
 C         -0.0125764413        0.3595589186       -2.9513599345
 C         -0.0240353420       -0.1761775688       -4.2293681089
 C         -0.0302051583       -1.5544636727       -4.3714302581
 C         -0.0250937080       -2.3859215650       -3.2609068103
 C         -0.0146896451       -1.8558472337       -1.9772688981
 C         -0.0085986753       -0.4860855462       -1.8317264162
 C         -1.1712674596        0.0073369349        0.3474644360
 C         -2.4948768093        0.0656669061        0.0498925175
 C         -3.4310818435       -0.2788813480        1.0529929075
 N         -4.8055173145       -0.2603051319        0.7643801996
 C         -5.6770415249        0.5220277849        1.5104117051
 C         -5.2256457887        1.3964465615        2.5000853380
 C         -6.1190742597        2.1513029794        3.2364249637
 C         -7.4803487103        2.0639847731        2.9953583748
 C         -7.9453619626        1.2356282389        1.9864707976
 C         -7.0567500474        0.4783609660        1.2426763587
 O         -7.5778866035       -0.2832554764        0.2341269148
 C         -6.7060421942       -1.0172447914       -0.5210432824
 C         -7.2473915506       -1.7762584084       -1.5451305701
 C         -6.4304566223       -2.5790827246       -2.3244704428
 C         -5.0734898515       -2.6388305223       -2.0555344605
 C         -4.5252518181       -1.8857447937       -1.0338132911
 C         -5.3234995498       -1.0371183662       -0.2657054604
 C         -2.9840519272       -0.6660127954        2.3348413056
 C         -1.6524890267       -0.7376736738        2.6321926069
 C         -0.6994750300       -0.4049650506        1.6374289987
 H          8.1676206790        2.6402903174        3.5827604091
 H          5.7310907209        2.8336863917        3.9746525089
 H          4.1576674448        1.5046961537        2.6438818678
 H          8.9963128813        1.1332322591        1.7886042738
 H          8.3321392434       -1.7945817238       -1.6491092067
 H          6.8827246913       -3.2234849042       -3.0762477389
 H          4.4464633983       -3.2989472101       -2.6353288131
 H          3.4747413315       -1.9511929246       -0.8432451684
 H          3.7284785600       -0.9438579152        3.0649602659
 H          1.3278550635       -1.0618094233        3.6045749132
 H          2.8397958608        0.3886588127       -0.9268480437
 H          0.0200252246        2.9002093371        0.7097902972
 H          0.0291228330        5.0443095171       -0.5317534786
 H          0.0187396525        5.0641015178       -2.9835340741
 H         -0.0023868007        2.9505345387       -4.2600533895
 H         -0.0279494545        0.4657564170       -5.0980490841
 H         -0.0391070128       -1.9890180676       -5.3607056754
 H         -0.0300793291       -3.4577383192       -3.3969522441
 H         -0.0119766730       -2.5016722532       -1.1106696721
 H         -2.8429809881        0.3935915947       -0.9192861372
 H         -4.1663556059        1.4858450274        2.6774214708
 H         -5.7451547720        2.8161602583        3.9995604350
 H         -8.1780175343        2.6481363742        3.5737904269
 H         -8.9956556555        1.1673766514        1.7525834435
 H         -8.3121302697       -1.7285156899       -1.7078807089
 H         -6.8577870849       -3.1641755514       -3.1230846695
 H         -4.4312686494       -3.2804406078       -2.6386673323
 H         -3.4717432117       -1.9591800809       -0.8203919636
 H         -3.7237638152       -0.9452906688        3.0722477628
 H         -1.3221365733       -1.0636476751        3.6066396431
  83
  -134.207917290000       0.207100584025645      !
 C          7.3391051177        1.2858915833        3.6169638257
 C          5.9694008231        1.2709604205        3.8229354530
 C          5.1222662193        0.7316696313        2.8734208032
 C          5.6297183938        0.1792789166        1.6963047532
 C          7.0168296153        0.2470948976        1.4762405081
 C          7.8590138734        0.7855278011        2.4337652996
 O          7.5899527097       -0.1859485782        0.3130788040
 C          6.7633160652       -0.6961788288       -0.6490235792
 C          7.3572664477       -1.1170156143       -1.8272414814
 C          6.5895456469       -1.6853123399       -2.8306718507
 C          5.2294294390       -1.8561759047       -2.6364011541
 C          4.6290145117       -1.4412945613       -1.4619184395
 C          5.3762401579       -0.8245038045       -0.4576829682
 N          4.8055363165       -0.3854989177        0.7319496436
 C          3.4283464421       -0.5342228296        0.9649310953
 C          2.9785164654       -1.2762531655        2.0788245388
 C          1.6469706526       -1.4770600029        2.3095982191
 C          0.6952667054       -0.9181845062        1.4204522463
 C          1.1692145667       -0.1589591383        0.2995626159
 C          2.4935878577        0.0317284641        0.0670153492
 C          0.0023573230        0.3232088177       -0.5281728414
 C         -0.0954272150        1.8219885886       -0.6744923928
 C         -0.2339619892        2.7690045091        0.3159989979
 C         -0.3409813639        4.1033801551       -0.0533398982
 C         -0.3143302408        4.4737297186       -1.3901278767
 C         -0.1787375465        3.5239680816       -2.3895979778
 C         -0.0686572361        2.1905103185       -2.0280962995
 C          0.0723713108        0.9864149809       -2.8291777186
 C          0.1807894503        0.8056967676       -4.1989778487
 C          0.3171978022       -0.4826066794       -4.6899348561
 C          0.3461172751       -1.5728843658       -3.8325255647
 C          0.2406016930       -1.3990472853       -2.4587165210
 C          0.1014469625       -0.1201407059       -1.9665168127
 C         -1.1701102314       -0.2401639683        0.2383443191
 C         -2.4924431857       -0.0975792716       -0.0353099854
 C         -3.4348399225       -0.6734739517        0.8485913939
 N         -4.8089763220       -0.4991283249        0.6167758040
 C         -5.3525894648        0.7768386407        0.5141705177
 C         -4.5843698170        1.9314753290        0.6715599734
 C         -5.1568042077        3.1839738772        0.5489510598
 C         -6.5098799664        3.3175775283        0.2871827672
 C         -7.2994005819        2.1846547252        0.1756900400
 C         -6.7335177225        0.9262981064        0.2952291423
 O         -7.5813197310       -0.1435585936        0.2199879197
 C         -7.0366609711       -1.3925684026        0.3293830370
 C         -7.9019390613       -2.4690762343        0.2358049808
 C         -7.4116676214       -3.7640427090        0.2912043707
 C         -6.0477867296       -3.9746642064        0.4102107712
 C         -5.1776644252       -2.9051844834        0.5070377962
 C         -5.6557529587       -1.5938307587        0.5024961446
 C         -2.9937349138       -1.3854084542        1.9854492054
 C         -1.6638001438       -1.5256322582        2.2654546219
 C         -0.7049374235       -0.9526955764        1.3929549335
 H          8.0008109565        1.7001314139        4.3606831086
 H          5.5524251037        1.6873063241        4.7268515245
 H          4.0560376453        0.7434169584        3.0301150562
 H          8.9171036962        0.8104679726        2.2282383682
 H          8.4235247727       -0.9967445255       -1.9324634340
 H          7.0575629859       -2.0059570692       -3.7476732886
 H          4.6249802888       -2.3212547096       -3.3996152673
 H          3.5739459257       -1.6025089503       -1.3153348831
 H          3.7180085383       -1.7194941693        2.7312706504
 H          1.3170555031       -2.0702700718        3.1487228762
 H          2.8405706135        0.6239317135       -0.7677757636
 H         -0.2587856931        2.4780540571        1.3564123991
 H         -0.4473405043        4.8621794219        0.7083533957
 H         -0.4019104127        5.5178748807       -1.6540728716
 H         -0.1630374923        3.8181448322       -3.4287793455
 H          0.1631985892        1.6510892121       -4.8711485471
 H          0.4037011428       -0.6417124876       -5.7552135965
 H          0.4527512047       -2.5683043299       -4.2389398895
 H          0.2665891911       -2.2470248403       -1.7893150680
 H         -2.8330557105        0.4230409055       -0.9189621528
 H         -3.5349366717        1.8443224893        0.8990179009
 H         -4.5359830519        4.0587449755        0.6652831479
 H         -6.9558282501        4.2942202936        0.1875472210
 H         -8.3615754814        2.2519531955        0.0034094239
 H         -8.9541440951       -2.2696696888        0.1111055737
 H         -8.0913557335       -4.5982377664        0.2224323326
 H         -5.6532031836       -4.9788605465        0.4214972688
 H         -4.1158481864       -3.0762735861        0.5757445023
 H         -3.7377620796       -1.7878161246        2.6588026873
 H         -1.3404696721       -2.0473567003        3.1532547937
  83
  -134.207898710000       0.203068493440232      !
 C          6.5945402911        3.2867855675        0.4391524620
 C          5.2322084109        3.1741913675        0.6592586183
 C          4.6306406535        1.9308214069        0.7248683004
 C          5.3791905515        0.7661554543        0.5513391183
 C          6.7674641602        0.8923905004        0.3668138822
 C          7.3626058996        2.1416462151        0.3063441088
 O          7.5939194338       -0.1924002875        0.2693153185
 C          7.0201564637       -1.4323604547        0.3147822356
 C          7.8612464580       -2.5242225630        0.1866721922
 C          7.3399543294       -3.8082494977        0.1802593756
 C          5.9698793110       -3.9915727347        0.2742900588
 C          5.1237881862       -2.9069976053        0.4060802357
 C          5.6326037552       -1.6083215420        0.4607084075
 N          4.8088616773       -0.5006354056        0.6076438573
 C          3.4332574222       -0.6590162054        0.8453189842
 C          2.9939425137       -1.3872354355        1.9723227322
 C          1.6650018187       -1.5183924740        2.2609702139
 C          0.7055145616       -0.9260730127        1.4024434213
 C          1.1687701071       -0.2054780295        0.2521054897
 C          2.4908142394       -0.0645627501       -0.0254074919
 C         -0.0056725302        0.3522612195       -0.5154775647
 C          0.0886343484        1.8470087929       -0.6948369789
 C          0.2292334607        2.8164198317        0.2735193655
 C          0.3329286605        4.1424379630       -0.1259539213
 C          0.3005103964        4.4829403714       -1.4704619718
 C          0.1621081481        3.5108894516       -2.4479017671
 C          0.0557458725        2.1857272201       -2.0563466026
 C         -0.0845223950        0.9642380263       -2.8308357387
 C         -0.1954257650        0.7523307912       -4.1960006736
 C         -0.3270645487       -0.5473218965       -4.6575448068
 C         -0.3491253178       -1.6184349638       -3.7760020452
 C         -0.2417663713       -1.4132928372       -2.4067679085
 C         -0.1074327032       -0.1229153549       -1.9441291203
 C         -1.1705384534       -0.1229195892        0.3193169273
 C         -2.4956142722        0.0642713905        0.0881734483
 C         -3.4283673138       -0.5051538844        0.9860664830
 N         -4.8054527696       -0.3691840800        0.7426750249
 C         -5.6438622057        0.2007656744        1.6911754353
 C         -5.1557819471        0.7503172384        2.8775712382
 C         -6.0173573683        1.2999153702        3.8082085289
 C         -7.3821347817        1.3285747588        3.5733077458
 C         -7.8824370384        0.8283187931        2.3817545192
 C         -7.0259878654        0.2779449091        1.4437590013
 O         -7.5805966289       -0.1569271071        0.2722512075
 C         -6.7417848350       -0.6901030154       -0.6665355389
 C         -7.3179996726       -1.1281212180       -1.8472337177
 C         -6.5365873880       -1.7183045017       -2.8272283634
 C         -5.1806436258       -1.8922813618       -2.6073835192
 C         -4.5978607265       -1.4599273314       -1.4305162308
 C         -5.3589970647       -0.8231102394       -0.4493644606
 C         -2.9766025271       -1.2467404520        2.0990611305
 C         -1.6441874285       -1.4459528508        2.3272895565
 C         -0.6945380576       -0.8860141787        1.4365830875
 H          7.0637278573        4.2562838793        0.3874061149
 H          4.6272825674        4.0581120188        0.7887259238
 H          3.5737583902        1.8580543355        0.9207205310
 H          8.4302892587        2.1917163699        0.1640637191
 H          8.9196257256       -2.3453854926        0.0852562782
 H          8.0006984766       -4.6548137322        0.0838137043
 H          5.5523594510       -4.9858602846        0.2385790647
 H          4.0573465343       -3.0544459303        0.4570374601
 H          3.7397168615       -1.8111486659        2.6304262087
 H          1.3431324417       -2.0523044589        3.1420011252
 H          2.8301763383        0.4643979140       -0.9046285862
 H          0.2586619815        2.5490507169        1.3201155451
 H          0.4417033657        4.9181607379        0.6181372253
 H          0.3862584579        5.5209482796       -1.7581127703
 H          0.1416751769        3.7817606744       -3.4933541791
 H         -0.1825304474        1.5823160641       -4.8872425039
 H         -0.4150306228       -0.7306957821       -5.7187759336
 H         -0.4523299583       -2.6231298774       -4.1597761768
 H         -0.2627072274       -2.2457329053       -1.7179703269
 H         -2.8456575445        0.6530190574       -0.7478142518
 H         -4.0929967152        0.7526032558        3.0561841995
 H         -5.6153756304        1.7135933725        4.7201316765
 H         -8.0550442437        1.7524185490        4.3014435834
 H         -8.9358210676        0.8623531628        2.1544028877
 H         -8.3814705833       -1.0029384645       -1.9733519642
 H         -6.9908893481       -2.0528792554       -3.7461605516
 H         -4.5660208628       -2.3741872186       -3.3518141414
 H         -3.5460311295       -1.6229134505       -1.2633460036
 H         -3.7144136618       -1.6924508163        2.7516758253
 H         -1.3121246413       -2.0402147021        3.1648355024
  83
  -134.207365090000       0.115453678426145      !
 C          7.4402319543        1.4080676487        3.4493277655
 C          6.0985624888        1.2888439594        3.7701645181
 C          5.2163423819        0.6887255127        2.8906160258
 C          5.6617672678        0.1771553772        1.6716250555
 C          7.0176239340        0.3432406967        1.3386441141
 C          7.8946271933        0.9458462268        2.2248750405
 O          7.5256753995       -0.0458152372        0.1307126894
 C          6.6657353422       -0.6227823416       -0.7621507240
 C          7.1891492045       -1.0020657081       -1.9864050084
 C          6.3852973694       -1.6319088326       -2.9231765040
 C          5.0635272549       -1.9077655173       -2.6145772476
 C          4.5333764112       -1.5319146691       -1.3949660988
 C          5.3121059328       -0.8504868067       -0.4573902005
 N          4.8030758887       -0.4361528342        0.7682097726
 C          3.4321689877       -0.5729007633        1.0419582236
 C          2.9872750463       -1.2997624065        2.1667537410
 C          1.6550460707       -1.4817906666        2.4160269396
 C          0.6961841973       -0.9228082703        1.5333052368
 C          1.1687501225       -0.1827079748        0.3987575730
 C          2.4907930881       -0.0082457758        0.1493370708
 C          0.0034966373        0.3176157965       -0.4172546500
 C         -0.0415927326        1.8178757090       -0.5680550020
 C         -0.0932870828        2.7740223081        0.4219551609
 C         -0.1380616196        4.1110312546        0.0496389051
 C         -0.1337449776        4.4748532221       -1.2890377613
 C         -0.0842096994        3.5157901815       -2.2878164899
 C         -0.0376336718        2.1795437821       -1.9235943488
 C          0.0205204013        0.9666624579       -2.7225954107
 C          0.0529166735        0.7736194138       -4.0944649779
 C          0.1101778273       -0.5223224562       -4.5814037507
 C          0.1363866101       -1.6080828784       -3.7183475066
 C          0.1044513115       -1.4221690530       -2.3426179790
 C          0.0447418693       -0.1355115314       -1.8547494375
 C         -1.1683693316       -0.2249771256        0.3624171181
 C         -2.4874853185       -0.0887212699        0.0770482269
 C         -3.4362996053       -0.6749884633        0.9477149230
 N         -4.8047763855       -0.5161795328        0.6743013290
 C         -5.3356563313        0.7571446906        0.5032623062
 C         -4.5903053677        1.9125959076        0.7474278538
 C         -5.1392250198        3.1639146356        0.5415868840
 C         -6.4475453803        3.2963063947        0.1062215477
 C         -7.2203893780        2.1632014109       -0.0920941978
 C         -6.6782420191        0.9060876666        0.1128752307
 O         -7.5088803555       -0.1662770096       -0.0590709264
 C         -6.9821866232       -1.4127776334        0.1338976745
 C         -7.8308663793       -2.4899705777       -0.0597031327
 C         -7.3553832802       -3.7844781173        0.0720445485
 C         -6.0199082443       -3.9951146875        0.3706876303
 C         -5.1657412957       -2.9249137821        0.5643353919
 C         -5.6344351292       -1.6137450090        0.4803097980
 C         -3.0012684819       -1.3760901939        2.0925779679
 C         -1.6718804396       -1.5094415678        2.3843406614
 C         -0.7053794381       -0.9409279184        1.5160756692
 H          8.1291420648        1.8735157349        4.1359728962
 H          5.7292928742        1.6720671897        4.7087794374
 H          4.1689460786        0.6252609187        3.1357590958
 H          8.9264660535        1.0503313526        1.9302615819
 H          8.2301002491       -0.8001537492       -2.1817128635
 H          6.7971337382       -1.9187070993       -3.8775196128
 H          4.4355516632       -2.4236873771       -3.3242630150
 H          3.5092355628       -1.7699170005       -1.1597783841
 H          3.7278022361       -1.7488191140        2.8140271985
 H          1.3303168253       -2.0615966716        3.2666483585
 H          2.8336001552        0.5676063721       -0.6985275823
 H         -0.0965643849        2.4879318930        1.4639450043
 H         -0.1760517227        4.8770648602        0.8105677418
 H         -0.1692634015        5.5214793142       -1.5552422208
 H         -0.0818962014        3.8058048526       -3.3282990134
 H          0.0336431020        1.6147182013       -4.7718833178
 H          0.1349046317       -0.6910236515       -5.6484160031
 H          0.1809252503       -2.6093207655       -4.1218240706
 H          0.1237512731       -2.2661991056       -1.6681559057
 H         -2.8218180623        0.4327582745       -0.8085299980
 H         -3.5772332106        1.8233669311        1.1035834237
 H         -4.5366143832        4.0395219469        0.7271077827
 H         -6.8733445218        4.2724275731       -0.0624961273
 H         -8.2509418598        2.2309947309       -0.4013719812
 H         -8.8571534582       -2.2900907494       -0.3227874570
 H         -8.0223827824       -4.6185297792       -0.0769066901
 H         -5.6329398815       -4.9994672740        0.4466734527
 H         -4.1217125130       -3.0981670207        0.7671661081
 H         -3.7478719107       -1.7786185362        2.7630541946
 H         -1.3553879292       -2.0290012981        3.2760146928
