  83
       -134.20804689
 C          6.4450558979        3.2265900385        1.1347406052
 C          5.0871865731        3.0248688695        1.3148397783
 C          4.5325445590        1.7707841646        1.1369055592
 C          5.3247364766        0.6879745568        0.7529251643
 C          6.7085334555        0.8964515900        0.6157943569
 C          7.2564899608        2.1551793058        0.7987902862
 O          7.5762895668       -0.1204402548        0.3296360063
 C          7.0495151421       -1.3666969864        0.1345688931
 C          7.9341572273       -2.3851537032       -0.1757245675
 C          7.4633616553       -3.6632179617       -0.4316584669
 C          6.1002445662       -3.9083865342       -0.4049957570
 C          5.2108741506       -2.8977546746       -0.0925311749
 C          5.6679670054       -1.6155666716        0.2165560925
 N          4.8006268088       -0.5849395212        0.5547154305
 C          3.4268027654       -0.8274654354        0.7134761748
 C          2.9819521195       -1.7856935857        1.6503120578
 C          1.6511193933       -2.0156229050        1.8569144778
 C          0.6947409029       -1.2832195845        1.1101013905
 C          1.1642092901       -0.3234253751        0.1537452247
 C          2.4870562668       -0.0914077829       -0.0458636000
 C         -0.0074488908        0.3569912600       -0.5135749621
 C          0.0053247203        1.8519698903       -0.3036197932
 C          0.0067592696        2.5453878775        0.8865304582
 C          0.0298009808        3.9332818111        0.8442719620
 C          0.0521471757        4.6051112720       -0.3693195011
 C          0.0500133305        3.9108819218       -1.5684695845
 C          0.0258409843        2.5256325740       -1.5338289014
 C          0.0179739781        1.5360276310       -2.5980800141
 C          0.0282858492        1.6762883211       -3.9767368825
 C          0.0158793485        0.5336724994       -4.7602303056
 C         -0.0068126473       -0.7269060145       -4.1816546730
 C         -0.0172221090       -0.8749237192       -2.8007311304
 C         -0.0047530523        0.2581207966       -2.0178916611
 C         -1.1774033231       -0.3205248446        0.1580408489
 C         -2.5009204867       -0.0874127610       -0.0360391813
 C         -3.4386819637       -0.8267654439        0.7228583518
 N         -4.8127805329       -0.5825107341        0.5666209048
 C         -5.3332756887        0.6904436511        0.7719010027
 C         -4.5399528103        1.7640266869        1.1788442754
 C         -5.0895960545        3.0192474203        1.3632694288
 C         -6.4435275645        3.2311406946        1.1658947946
 C         -7.2565106718        2.1684890947        0.8062755087
 C         -6.7136289176        0.9085650840        0.6176059763
 O         -7.5824416340       -0.1005377390        0.3076193225
 C         -7.0598572980       -1.3484649469        0.1115241127
 C         -7.9460890293       -2.3589619559       -0.2199672340
 C         -7.4796668591       -3.6382068775       -0.4774940714
 C         -6.1190917273       -3.8928915534       -0.4295621385
 C         -5.2280786277       -2.8900689021       -0.0963784843
 C         -5.6814116859       -1.6067218163        0.2123063376
 C         -2.9920533589       -1.7874884733        1.6557958911
 C         -1.6605121460       -2.0171210536        1.8590137027
 C         -0.7062023168       -1.2827429600        1.1115563471
 H          6.8775189588        4.2049659589        1.2710537199
 H          4.4487493161        3.8456539613        1.6026238432
 H          3.4783424905        1.6244240274        1.3041295533
 H          8.3222752314        2.2695783443        0.6816411809
 H          8.9860234912       -2.1528246701       -0.2197996090
 H          8.1579195272       -4.4532834272       -0.6682123834
 H          5.7218279780       -4.8924381029       -0.6344226498
 H          4.1504623326       -3.0899311862       -0.0955024129
 H          3.7233362224       -2.3124713327        2.2349285372
 H          1.3242035367       -2.7308938367        2.5961713363
 H          2.8307880266        0.6173508872       -0.7857644463
 H         -0.0085940508        2.0191155213        1.8303893220
 H          0.0317001311        4.4964647750        1.7663163117
 H          0.0715566992        5.6854550447       -0.3781035966
 H          0.0674193338        4.4404811172       -2.5096880866
 H          0.0458122806        2.6553645892       -4.4327004061
 H          0.0241683088        0.6243864856       -5.8369344401
 H         -0.0158273744       -1.6032474192       -4.8133151409
 H         -0.0344774697       -1.8560741529       -2.3488179077
 H         -2.8474769430        0.6254940144       -0.7706682923
 H         -3.4890445505        1.6084497692        1.3585405618
 H         -4.4507833360        3.8329010978        1.6701802407
 H         -6.8718222641        4.2108446669        1.3056440799
 H         -8.3194719639        2.2912929268        0.6735983196
 H         -8.9956072123       -2.1191414894       -0.2796346792
 H         -8.1755600210       -4.4218093596       -0.7312136063
 H         -5.7435529514       -4.8782435177       -0.6581625506
 H         -4.1690707376       -3.0896050349       -0.0837450044
 H         -3.7319960601       -2.3166219828        2.2401570704
 H         -1.3314504988       -2.7344465388        2.5953447751
  83
       -134.20791729
 C          7.3391051177        1.2858915833        3.6169638257
 C          5.9694008231        1.2709604205        3.8229354530
 C          5.1222662193        0.7316696313        2.8734208032
 C          5.6297183938        0.1792789166        1.6963047532
 C          7.0168296153        0.2470948976        1.4762405081
 C          7.8590138734        0.7855278011        2.4337652996
 O          7.5899527097       -0.1859485782        0.3130788040
 C          6.7633160652       -0.6961788288       -0.6490235792
 C          7.3572664477       -1.1170156143       -1.8272414814
 C          6.5895456469       -1.6853123399       -2.8306718507
 C          5.2294294390       -1.8561759047       -2.6364011541
 C          4.6290145117       -1.4412945613       -1.4619184395
 C          5.3762401579       -0.8245038045       -0.4576829682
 N          4.8055363165       -0.3854989177        0.7319496436
 C          3.4283464421       -0.5342228296        0.9649310953
 C          2.9785164654       -1.2762531655        2.0788245388
 C          1.6469706526       -1.4770600029        2.3095982191
 C          0.6952667054       -0.9181845062        1.4204522463
 C          1.1692145667       -0.1589591383        0.2995626159
 C          2.4935878577        0.0317284641        0.0670153492
 C          0.0023573230        0.3232088177       -0.5281728414
 C         -0.0954272150        1.8219885886       -0.6744923928
 C         -0.2339619892        2.7690045091        0.3159989979
 C         -0.3409813639        4.1033801551       -0.0533398982
 C         -0.3143302408        4.4737297186       -1.3901278767
 C         -0.1787375465        3.5239680816       -2.3895979778
 C         -0.0686572361        2.1905103185       -2.0280962995
 C          0.0723713108        0.9864149809       -2.8291777186
 C          0.1807894503        0.8056967676       -4.1989778487
 C          0.3171978022       -0.4826066794       -4.6899348561
 C          0.3461172751       -1.5728843658       -3.8325255647
 C          0.2406016930       -1.3990472853       -2.4587165210
 C          0.1014469625       -0.1201407059       -1.9665168127
 C         -1.1701102314       -0.2401639683        0.2383443191
 C         -2.4924431857       -0.0975792716       -0.0353099854
 C         -3.4348399225       -0.6734739517        0.8485913939
 N         -4.8089763220       -0.4991283249        0.6167758040
 C         -5.3525894648        0.7768386407        0.5141705177
 C         -4.5843698170        1.9314753290        0.6715599734
 C         -5.1568042077        3.1839738772        0.5489510598
 C         -6.5098799664        3.3175775283        0.2871827672
 C         -7.2994005819        2.1846547252        0.1756900400
 C         -6.7335177225        0.9262981064        0.2952291423
 O         -7.5813197310       -0.1435585936        0.2199879197
 C         -7.0366609711       -1.3925684026        0.3293830370
 C         -7.9019390613       -2.4690762343        0.2358049808
 C         -7.4116676214       -3.7640427090        0.2912043707
 C         -6.0477867296       -3.9746642064        0.4102107712
 C         -5.1776644252       -2.9051844834        0.5070377962
 C         -5.6557529587       -1.5938307587        0.5024961446
 C         -2.9937349138       -1.3854084542        1.9854492054
 C         -1.6638001438       -1.5256322582        2.2654546219
 C         -0.7049374235       -0.9526955764        1.3929549335
 H          8.0008109565        1.7001314139        4.3606831086
 H          5.5524251037        1.6873063241        4.7268515245
 H          4.0560376453        0.7434169584        3.0301150562
 H          8.9171036962        0.8104679726        2.2282383682
 H          8.4235247727       -0.9967445255       -1.9324634340
 H          7.0575629859       -2.0059570692       -3.7476732886
 H          4.6249802888       -2.3212547096       -3.3996152673
 H          3.5739459257       -1.6025089503       -1.3153348831
 H          3.7180085383       -1.7194941693        2.7312706504
 H          1.3170555031       -2.0702700718        3.1487228762
 H          2.8405706135        0.6239317135       -0.7677757636
 H         -0.2587856931        2.4780540571        1.3564123991
 H         -0.4473405043        4.8621794219        0.7083533957
 H         -0.4019104127        5.5178748807       -1.6540728716
 H         -0.1630374923        3.8181448322       -3.4287793455
 H          0.1631985892        1.6510892121       -4.8711485471
 H          0.4037011428       -0.6417124876       -5.7552135965
 H          0.4527512047       -2.5683043299       -4.2389398895
 H          0.2665891911       -2.2470248403       -1.7893150680
 H         -2.8330557105        0.4230409055       -0.9189621528
 H         -3.5349366717        1.8443224893        0.8990179009
 H         -4.5359830519        4.0587449755        0.6652831479
 H         -6.9558282501        4.2942202936        0.1875472210
 H         -8.3615754814        2.2519531955        0.0034094239
 H         -8.9541440951       -2.2696696888        0.1111055737
 H         -8.0913557335       -4.5982377664        0.2224323326
 H         -5.6532031836       -4.9788605465        0.4214972688
 H         -4.1158481864       -3.0762735861        0.5757445023
 H         -3.7377620796       -1.7878161246        2.6588026873
 H         -1.3404696721       -2.0473567003        3.1532547937
  83
       -134.20736509
 C          7.4402319543        1.4080676487        3.4493277655
 C          6.0985624888        1.2888439594        3.7701645181
 C          5.2163423819        0.6887255127        2.8906160258
 C          5.6617672678        0.1771553772        1.6716250555
 C          7.0176239340        0.3432406967        1.3386441141
 C          7.8946271933        0.9458462268        2.2248750405
 O          7.5256753995       -0.0458152372        0.1307126894
 C          6.6657353422       -0.6227823416       -0.7621507240
 C          7.1891492045       -1.0020657081       -1.9864050084
 C          6.3852973694       -1.6319088326       -2.9231765040
 C          5.0635272549       -1.9077655173       -2.6145772476
 C          4.5333764112       -1.5319146691       -1.3949660988
 C          5.3121059328       -0.8504868067       -0.4573902005
 N          4.8030758887       -0.4361528342        0.7682097726
 C          3.4321689877       -0.5729007633        1.0419582236
 C          2.9872750463       -1.2997624065        2.1667537410
 C          1.6550460707       -1.4817906666        2.4160269396
 C          0.6961841973       -0.9228082703        1.5333052368
 C          1.1687501225       -0.1827079748        0.3987575730
 C          2.4907930881       -0.0082457758        0.1493370708
 C          0.0034966373        0.3176157965       -0.4172546500
 C         -0.0415927326        1.8178757090       -0.5680550020
 C         -0.0932870828        2.7740223081        0.4219551609
 C         -0.1380616196        4.1110312546        0.0496389051
 C         -0.1337449776        4.4748532221       -1.2890377613
 C         -0.0842096994        3.5157901815       -2.2878164899
 C         -0.0376336718        2.1795437821       -1.9235943488
 C          0.0205204013        0.9666624579       -2.7225954107
 C          0.0529166735        0.7736194138       -4.0944649779
 C          0.1101778273       -0.5223224562       -4.5814037507
 C          0.1363866101       -1.6080828784       -3.7183475066
 C          0.1044513115       -1.4221690530       -2.3426179790
 C          0.0447418693       -0.1355115314       -1.8547494375
 C         -1.1683693316       -0.2249771256        0.3624171181
 C         -2.4874853185       -0.0887212699        0.0770482269
 C         -3.4362996053       -0.6749884633        0.9477149230
 N         -4.8047763855       -0.5161795328        0.6743013290
 C         -5.3356563313        0.7571446906        0.5032623062
 C         -4.5903053677        1.9125959076        0.7474278538
 C         -5.1392250198        3.1639146356        0.5415868840
 C         -6.4475453803        3.2963063947        0.1062215477
 C         -7.2203893780        2.1632014109       -0.0920941978
 C         -6.6782420191        0.9060876666        0.1128752307
 O         -7.5088803555       -0.1662770096       -0.0590709264
 C         -6.9821866232       -1.4127776334        0.1338976745
 C         -7.8308663793       -2.4899705777       -0.0597031327
 C         -7.3553832802       -3.7844781173        0.0720445485
 C         -6.0199082443       -3.9951146875        0.3706876303
 C         -5.1657412957       -2.9249137821        0.5643353919
 C         -5.6344351292       -1.6137450090        0.4803097980
 C         -3.0012684819       -1.3760901939        2.0925779679
 C         -1.6718804396       -1.5094415678        2.3843406614
 C         -0.7053794381       -0.9409279184        1.5160756692
 H          8.1291420648        1.8735157349        4.1359728962
 H          5.7292928742        1.6720671897        4.7087794374
 H          4.1689460786        0.6252609187        3.1357590958
 H          8.9264660535        1.0503313526        1.9302615819
 H          8.2301002491       -0.8001537492       -2.1817128635
 H          6.7971337382       -1.9187070993       -3.8775196128
 H          4.4355516632       -2.4236873771       -3.3242630150
 H          3.5092355628       -1.7699170005       -1.1597783841
 H          3.7278022361       -1.7488191140        2.8140271985
 H          1.3303168253       -2.0615966716        3.2666483585
 H          2.8336001552        0.5676063721       -0.6985275823
 H         -0.0965643849        2.4879318930        1.4639450043
 H         -0.1760517227        4.8770648602        0.8105677418
 H         -0.1692634015        5.5214793142       -1.5552422208
 H         -0.0818962014        3.8058048526       -3.3282990134
 H          0.0336431020        1.6147182013       -4.7718833178
 H          0.1349046317       -0.6910236515       -5.6484160031
 H          0.1809252503       -2.6093207655       -4.1218240706
 H          0.1237512731       -2.2661991056       -1.6681559057
 H         -2.8218180623        0.4327582745       -0.8085299980
 H         -3.5772332106        1.8233669311        1.1035834237
 H         -4.5366143832        4.0395219469        0.7271077827
 H         -6.8733445218        4.2724275731       -0.0624961273
 H         -8.2509418598        2.2309947309       -0.4013719812
 H         -8.8571534582       -2.2900907494       -0.3227874570
 H         -8.0223827824       -4.6185297792       -0.0769066901
 H         -5.6329398815       -4.9994672740        0.4466734527
 H         -4.1217125130       -3.0981670207        0.7671661081
 H         -3.7478719107       -1.7786185362        2.7630541946
 H         -1.3553879292       -2.0290012981        3.2760146928
