  47
        -67.09220995
 C         -1.5055057097       -2.2096172556       -1.4645008343
 C         -1.0654144386       -1.7381217957       -0.0532710690
 C         -1.8263936878       -2.4700086969        1.0845305942
 C          0.3871485498       -2.1464612259        0.0376597130
 C          0.7182669634       -3.4928146078        0.0680318985
 C          2.0335365189       -3.9210562902        0.0838695284
 C          3.0592152927       -2.9816290635        0.0524425700
 C          2.7635284570       -1.6409166768        0.0256446381
 C          1.4271605956       -1.2012063741        0.0332970926
 N          1.1355990723        0.1395501689        0.0352957178
 C          2.2216219458        1.0618315057       -0.0113528352
 C          2.8875638094        1.4106858826        1.1579858680
 C          3.9466660491        2.2998582017        1.1023413923
 C          4.3407443602        2.8385851091       -0.1109948980
 C          3.6742285660        2.4887964374       -1.2752869189
 C          2.6137620194        1.6010174644       -1.2288313610
 C         -0.1408184831        0.6449583489        0.0883277848
 C         -0.3248969638        2.0143483137        0.1954505328
 C         -1.5926275318        2.5577829990        0.2168024652
 C         -2.7441619546        1.7355811554        0.1077323575
 C         -4.0110329558        2.3065045571        0.1021288949
 C         -5.1722838715        1.5166415930       -0.0022508049
 C         -5.0437967581        0.1575705694       -0.1011127613
 C         -3.7774701467       -0.4439473925       -0.0976345838
 C         -2.5854533525        0.3141493177        0.0088494863
 C         -1.2877960211       -0.2487649356        0.0301625328
 H         -2.5023204479       -1.8605273434       -1.7119053948
 H         -0.8166999037       -1.8060783541       -2.2054109152
 H         -1.4795629881       -3.2942151334       -1.5318013894
 H         -2.5411001160       -1.8109584629        1.5667905278
 H         -1.1224146933       -2.7997027555        1.8460461169
 H         -2.3552268011       -3.3428277594        0.7099792840
 H         -0.0697442325       -4.2302021700        0.0818925224
 H          2.2603802060       -4.9754556849        0.1114681386
 H          4.0899313008       -3.3029444031        0.0487037784
 H          3.5625052289       -0.9162744603       -0.0012972623
 H          2.5698923716        0.9837323531        2.0974832111
 H          4.4638004742        2.5724506173        2.0100442217
 H          5.1670547114        3.5320520418       -0.1506403683
 H          3.9806387465        2.9076262281       -2.2218253950
 H          2.0840659774        1.3232846237       -2.1278671769
 H          0.5295914356        2.6696230183        0.2645313441
 H         -1.7211397866        3.6249184695        0.3078049249
 H         -4.1011041006        3.3798154564        0.1821344731
 H         -6.1435556501        1.9884619325       -0.0028957176
 H         -5.9169558332       -0.4738677148       -0.1824628877
 H         -3.7524596278       -1.5152898241       -0.1773131465
