  47
  -66.7668592802000       0.362006490247934      !
 C         -1.5055057097       -2.2096172556       -1.4645008343
 C         -1.0654144386       -1.7381217957       -0.0532710690
 C         -1.8263936878       -2.4700086969        1.0845305942
 C          0.3871485498       -2.1464612259        0.0376597130
 C          0.7182669634       -3.4928146078        0.0680318985
 C          2.0335365189       -3.9210562902        0.0838695284
 C          3.0592152927       -2.9816290635        0.0524425700
 C          2.7635284570       -1.6409166768        0.0256446381
 C          1.4271605956       -1.2012063741        0.0332970926
 N          1.1355990723        0.1395501689        0.0352957178
 C          2.2216219458        1.0618315057       -0.0113528352
 C          2.8875638094        1.4106858826        1.1579858680
 C          3.9466660491        2.2998582017        1.1023413923
 C          4.3407443602        2.8385851091       -0.1109948980
 C          3.6742285660        2.4887964374       -1.2752869189
 C          2.6137620194        1.6010174644       -1.2288313610
 C         -0.1408184831        0.6449583489        0.0883277848
 C         -0.3248969638        2.0143483137        0.1954505328
 C         -1.5926275318        2.5577829990        0.2168024652
 C         -2.7441619546        1.7355811554        0.1077323575
 C         -4.0110329558        2.3065045571        0.1021288949
 C         -5.1722838715        1.5166415930       -0.0022508049
 C         -5.0437967581        0.1575705694       -0.1011127613
 C         -3.7774701467       -0.4439473925       -0.0976345838
 C         -2.5854533525        0.3141493177        0.0088494863
 C         -1.2877960211       -0.2487649356        0.0301625328
 H         -2.5023204479       -1.8605273434       -1.7119053948
 H         -0.8166999037       -1.8060783541       -2.2054109152
 H         -1.4795629881       -3.2942151334       -1.5318013894
 H         -2.5411001160       -1.8109584629        1.5667905278
 H         -1.1224146933       -2.7997027555        1.8460461169
 H         -2.3552268011       -3.3428277594        0.7099792840
 H         -0.0697442325       -4.2302021700        0.0818925224
 H          2.2603802060       -4.9754556849        0.1114681386
 H          4.0899313008       -3.3029444031        0.0487037784
 H          3.5625052289       -0.9162744603       -0.0012972623
 H          2.5698923716        0.9837323531        2.0974832111
 H          4.4638004742        2.5724506173        2.0100442217
 H          5.1670547114        3.5320520418       -0.1506403683
 H          3.9806387465        2.9076262281       -2.2218253950
 H          2.0840659774        1.3232846237       -2.1278671769
 H          0.5295914356        2.6696230183        0.2645313441
 H         -1.7211397866        3.6249184695        0.3078049249
 H         -4.1011041006        3.3798154564        0.1821344731
 H         -6.1435556501        1.9884619325       -0.0028957176
 H         -5.9169558332       -0.4738677148       -0.1824628877
 H         -3.7524596278       -1.5152898241       -0.1773131465
  47
  -66.7663830929000       0.218713618525077      !
 C         -1.6630717255       -2.2721561608       -1.3597389789
 C         -1.0673462406       -1.7410536050       -0.0303971342
 C         -1.7011102839       -2.4187919027        1.2166865675
 C          0.3885258786       -2.1476546839       -0.0579050565
 C          0.7188799010       -3.4949059016       -0.0546574484
 C          2.0330986221       -3.9253352041       -0.0653147506
 C          3.0594893376       -2.9863008088       -0.0636490591
 C          2.7647060471       -1.6452212062       -0.0605952301
 C          1.4290129922       -1.2034219960       -0.0731787309
 N          1.1395206550        0.1383990963       -0.0753820160
 C          2.2233243352        1.0609955774       -0.0083849008
 C          2.5642605033        1.6311202277        1.2111065927
 C          3.6183454450        2.5238585041        1.2800260878
 C          4.3321280441        2.8482694832        0.1357300191
 C          3.9905129487        2.2780846036       -1.0788895065
 C          2.9369004548        1.3840724009       -1.1572889004
 C         -0.1377137357        0.6442810373       -0.0851908908
 C         -0.3239629480        2.0154043033       -0.1698999601
 C         -1.5897063161        2.5611208230       -0.1330020888
 C         -2.7388319984        1.7383652565        0.0007603681
 C         -4.0037349442        2.3101979814        0.0549124362
 C         -5.1636576791        1.5185199722        0.1629931530
 C         -5.0353627557        0.1565186618        0.2080114855
 C         -3.7707324194       -0.4457488466        0.1581340521
 C         -2.5795644118        0.3148205508        0.0579839281
 C         -1.2837103408       -0.2486842586        0.0006468790
 H         -1.6533708245       -3.3585637908       -1.3821116370
 H         -2.6798622741       -1.9231323922       -1.5064937845
 H         -1.0603770377       -1.9079146690       -2.1903915247
 H         -0.9185147262       -2.7900301690        1.8757210078
 H         -2.3297231573       -3.2595274057        0.9339834670
 H         -2.2973392499       -1.7121497808        1.7858070120
 H         -0.0697832451       -4.2314425885       -0.0325051145
 H          2.2587905408       -4.9803772735       -0.0648972323
 H          4.0898894897       -3.3084104393       -0.0592700038
 H          3.5646832655       -0.9215290274       -0.0470221268
 H          1.9976687961        1.3728787334        2.0933733171
 H          3.8837191826        2.9669222010        2.2279185138
 H          5.1536482147        3.5460830312        0.1926240287
 H          4.5443916332        2.5306978385       -1.9706568018
 H          2.6602707441        0.9342719630       -2.0991320849
 H          0.5284536985        2.6699990926       -0.2660377801
 H         -1.7198048975        3.6295116989       -0.2051426907
 H         -4.0940287907        3.3853886804        0.0073821106
 H         -6.1335083657        1.9912163909        0.2055835508
 H         -5.9078380829       -0.4763382897        0.2858064375
 H         -3.7445238544       -1.5187723577        0.2036669141
  47
  -66.7662123545000       0.182561791990996      !
 C         -1.9087154049       -2.4894968688       -1.0021861221
 C         -1.0565481085       -1.7407987588        0.0550431462
 C         -1.3793566478       -2.1899738871        1.5052263521
 C          0.3858881506       -2.1521540808       -0.1361475771
 C          0.7084977691       -3.4989337945       -0.2154587534
 C          2.0198911772       -3.9320422856       -0.2879173399
 C          3.0510129183       -2.9992902926       -0.2511305447
 C          2.7635635549       -1.6583952632       -0.1723819168
 C          1.4308335678       -1.2119571944       -0.1404451648
 N          1.1414865047        0.1299703020       -0.1054893882
 C          2.2134883346        1.0574481675        0.0256486843
 C          2.4582032426        1.6420678916        1.2615918941
 C          3.4994990034        2.5403098267        1.4027584019
 C          4.2966361423        2.8595486261        0.3129270959
 C          4.0490136011        2.2785286275       -0.9193475555
 C          3.0102097626        1.3773041873       -1.0696359425
 C         -0.1358459561        0.6332061355       -0.1679579168
 C         -0.3198890974        1.9956304057       -0.3444794964
 C         -1.5860142483        2.5414721570       -0.3506607040
 C         -2.7325374925        1.7336930814       -0.1293661077
 C         -3.9958398362        2.3106730285       -0.0923878907
 C         -5.1513447743        1.5355538241        0.1230168455
 C         -5.0208081222        0.1846389287        0.3023884002
 C         -3.7585070315       -0.4229546222        0.2679664305
 C         -2.5732211923        0.3192578972        0.0427670820
 C         -1.2823114318       -0.2528850280       -0.0385337076
 H         -2.3727365839       -3.3775269623       -0.5802100411
 H         -2.6877801545       -1.8500751128       -1.4046712785
 H         -1.2767752809       -2.7958066093       -1.8336225542
 H         -1.3253396696       -3.2725611999        1.5902990870
 H         -2.3613600851       -1.8555188280        1.8215948351
 H         -0.6448168774       -1.7580415473        2.1838584300
 H         -0.0829917585       -4.2325527516       -0.2184460501
 H          2.2400602363       -4.9860495742       -0.3565455585
 H          4.0796316948       -3.3254805540       -0.2833044631
 H          3.5676575236       -0.9401423046       -0.1367053470
 H          1.8277652013        1.3888620369        2.1010895283
 H          3.6908376713        2.9915269878        2.3645433415
 H          5.1076399709        3.5627705014        0.4258282268
 H          4.6660367624        2.5285095159       -1.7694826982
 H          2.8061952721        0.9206365249       -2.0265941598
 H          0.5343473812        2.6402073492       -0.4841330560
 H         -1.7176185873        3.6006121939       -0.5072117943
 H         -4.0880373779        3.3768353494       -0.2384307090
 H         -6.1202342483        2.0116778938        0.1445369610
 H         -5.8896393264       -0.4345865823        0.4738009254
 H         -3.7299972056       -1.4861925674        0.4225844394
  47
  -66.7657442852000       0.111250029170377      !
 C         -1.9473255697       -2.5259630570       -0.9085552864
 C         -1.0458721185       -1.7430810114        0.0792167524
 C         -1.2982526952       -2.1413240202        1.5581838679
 C          0.3875375954       -2.1623442541       -0.1612048330
 C          0.7038840829       -3.5112556816       -0.2327882820
 C          2.0119954708       -3.9494753123       -0.3266974041
 C          3.0469367553       -3.0208597060       -0.3148969964
 C          2.7656980401       -1.6779091849       -0.2436240939
 C          1.4361127207       -1.2264519928       -0.1965313331
 N          1.1479580635        0.1169828221       -0.1756155132
 C          2.2008474075        1.0533910619        0.0142815001
 C          2.3259580890        1.6777663086        1.2502685213
 C          3.3425674189        2.5885105333        1.4624975515
 C          4.2371070635        2.8842200548        0.4427269826
 C          4.1079049007        2.2669810987       -0.7902067972
 C          3.0938229680        1.3522641608       -1.0116780358
 C         -0.1306035820        0.6149076295       -0.2599371019
 C         -0.3145990990        1.9649047164       -0.5151601493
 C         -1.5785741889        2.5143049891       -0.5167826330
 C         -2.7171408544        1.7291066381       -0.1918141428
 C         -3.9738650417        2.3172584592       -0.1257443923
 C         -5.1208671609        1.5654917938        0.1918934929
 C         -4.9895665641        0.2248467517        0.4382365002
 C         -3.7345974731       -0.3943052774        0.3744121424
 C         -2.5576690332        0.3252101530        0.0526708338
 C         -1.2748722566       -0.2596131556       -0.0598879945
 H         -2.7714238736       -1.9138266660       -1.2600012686
 H         -1.3658751086       -2.8206205394       -1.7799285314
 H         -2.3539133797       -3.4227200167       -0.4475624322
 H         -0.5293013199       -1.6918008077        2.1851579474
 H         -1.2436225735       -3.2208486426        1.6759147194
 H         -2.2616699923       -1.7918044898        1.9126070531
 H         -0.0893055082       -4.2424236745       -0.2084530016
 H          2.2271169396       -5.0049021216       -0.3893493231
 H          4.0737289230       -3.3512629986       -0.3599501303
 H          3.5732324066       -0.9631371291       -0.2242202410
 H          1.6203393569        1.4431382870        2.0336973425
 H          3.4394677590        3.0682590344        2.4246683401
 H          5.0298704938        3.5971203963        0.6105986923
 H          4.7983538568        2.5010614308       -1.5868998719
 H          2.9799768462        0.8742176758       -1.9733857181
 H          0.5391397515        2.5932281339       -0.7189247099
 H         -1.7145916668        3.5606684776       -0.7405102316
 H         -4.0675759434        3.3741671251       -0.3273984573
 H         -6.0844298329        2.0505648737        0.2378133324
 H         -5.8525047317       -0.3762367301        0.6870643548
 H         -3.7041012241       -1.4483167461        0.5836785483
  47
  -66.7653225708000       7.120223302145225E-002 !
 C         -1.9817775680       -2.5441401294       -0.8238954739
 C         -1.0373414799       -1.7452987563        0.1062539622
 C         -1.2244920596       -2.1190201344        1.6012337417
 C          0.3861300196       -2.1698605546       -0.1839331234
 C          0.6956598497       -3.5185167313       -0.2845663669
 C          2.0009240008       -3.9603090141       -0.3994797426
 C          3.0405204101       -3.0379722864       -0.3700600314
 C          2.7660601994       -1.6948876876       -0.2719009293
 C          1.4393579429       -1.2384422243       -0.2169362430
 N          1.1533332387        0.1058756213       -0.1898335781
 C          2.1929621025        1.0493920825        0.0244286957
 C          2.2459567390        1.7136220947        1.2457636518
 C          3.2440061567        2.6366383649        1.4869083309
 C          4.1937329779        2.9070339604        0.5105351527
 C          4.1355471257        2.2528601609       -0.7085979097
 C          3.1398241803        1.3256987416       -0.9592846788
 C         -0.1257894685        0.6001484152       -0.2973155056
 C         -0.3087889956        1.9373928847       -0.6112252558
 C         -1.5727393724        2.4863511698       -0.6310146049
 C         -2.7063960022        1.7213192548       -0.2451422304
 C         -3.9618248708        2.3135731755       -0.1930311627
 C         -5.1022037836        1.5852056599        0.1939852405
 C         -4.9655581395        0.2639616593        0.5275881191
 C         -3.7125320549       -0.3600451831        0.4759626135
 C         -2.5447643348        0.3325855278        0.0744020192
 C         -1.2687984697       -0.2642893680       -0.0534550426
 H         -1.4624963693       -2.7881934357       -1.7486030939
 H         -2.3077970779       -3.4694333085       -0.3554881529
 H         -2.8597126410       -1.9641177558       -1.0872762914
 H         -1.1376731637       -3.1946969804        1.7354566819
 H         -2.1829264293       -1.7880963835        1.9853996725
 H         -0.4444119757       -1.6387351930        2.1905093647
 H         -0.0992054887       -4.2476315681       -0.2644415841
 H          2.2101948633       -5.0151441623       -0.4876943153
 H          4.0655554824       -3.3726190877       -0.4229271784
 H          3.5773161818       -0.9851108192       -0.2368859983
 H          1.4979238169        1.4990440963        1.9948912458
 H          3.2835953788        3.1463336145        2.4376559495
 H          4.9725039316        3.6295969916        0.7007834314
 H          4.8679362071        2.4679639664       -1.4725322121
 H          3.0807107053        0.8230023754       -1.9133168855
 H          0.5455007901        2.5535577528       -0.8479679372
 H         -1.7114683409        3.5198199628       -0.9067692932
 H         -4.0593200633        3.3557187586       -0.4595635651
 H         -6.0646567174        2.0734489462        0.2277094017
 H         -5.8224791946       -0.3172768707        0.8368456928
 H         -3.6749187223       -1.3950505555        0.7652983458
  47
  -66.7650658796000       5.426583704416473E-002 !
 C         -1.9986553169       -2.5622445905       -0.7556438453
 C         -1.0302484459       -1.7429547344        0.1303489152
 C         -1.1800162372       -2.0833668004        1.6375389310
 C          0.3864876272       -2.1728477444       -0.1854319838
 C          0.6933251279       -3.5222331204       -0.2839971389
 C          1.9961351794       -3.9651148268       -0.4216053142
 C          3.0367982298       -3.0437273868       -0.4169891611
 C          2.7653162168       -1.6999919010       -0.3174994265
 C          1.4403624084       -1.2431535975       -0.2389517547
 N          1.1552912707        0.1012930006       -0.2103859818
 C          2.1888593593        1.0465857548        0.0235893758
 C          2.2254006681        1.6932410057        1.2551834229
 C          3.2140724923        2.6194850652        1.5200847455
 C          4.1706702142        2.9118653003        0.5567668820
 C          4.1287163569        2.2756599851       -0.6725538072
 C          3.1428697042        1.3445971029       -0.9467944061
 C         -0.1241801865        0.5941606950       -0.3220777810
 C         -0.3072520246        1.9259276501       -0.6572620082
 C         -1.5719211442        2.4733088167       -0.6855454243
 C         -2.7028473960        1.7164405953       -0.2762867711
 C         -3.9588610455        2.3083279402       -0.2318386061
 C         -5.0949798374        1.5902780442        0.1854249384
 C         -4.9534742187        0.2807017728        0.5604862945
 C         -3.7001556022       -0.3432882130        0.5163274401
 C         -2.5382827980        0.3365459239        0.0784369287
 C         -1.2651914743       -0.2653146296       -0.0549840950
 H         -1.5034086333       -2.8309693269       -1.6866554966
 H         -2.3149903784       -3.4742940004       -0.2554949239
 H         -2.8816218453       -1.9862655915       -1.0112492375
 H         -1.0753028382       -3.1544381765        1.7943615400
 H         -2.1348954124       -1.7569033211        2.0342494613
 H         -0.3945617671       -1.5789783457        2.1988919244
 H         -0.1010985310       -4.2510589129       -0.2453235919
 H          2.2028452021       -5.0204597516       -0.5100806291
 H          4.0602199586       -3.3795079220       -0.4900989584
 H          3.5770288533       -0.9900566526       -0.3005006458
 H          1.4714832381        1.4622858026        1.9935542793
 H          3.2408349515        3.1147501692        2.4789037647
 H          4.9420936301        3.6372499850        0.7652627582
 H          4.8665188989        2.5081567094       -1.4261368403
 H          3.0951408586        0.8584218447       -1.9100012507
 H          0.5470595818        2.5373569197       -0.9060683921
 H         -1.7126575160        3.5005623290       -0.9826622531
 H         -4.0599278104        3.3422104318       -0.5275949253
 H         -6.0579767535        2.0779470240        0.2114128371
 H         -5.8067093088       -0.2911530513        0.8962777416
 H         -3.6567822935       -1.3674478687        0.8415604574
