67
 energy: -114.666365698813 gnorm: 0.000063749870 xtb: 6.7.1 (edcfbbe)
O           -0.20210272728252        5.51395378246073       -1.21986776411696
S            0.00147755947600        4.74877288495596        0.00011604483179
O            0.20553342073586        5.51376826572319        1.22013670370981
C            1.28019711071874        3.55040466946095       -0.22819666384717
C            1.70242940124698        2.82219341542717        0.89830392757596
C            2.16953885126382        1.54172398699603        0.75870823614185
C            2.21948797041554        0.94574200948293       -0.51398188332973
N            2.55113567394699       -0.42386153670554       -0.64378332574174
C            3.79142539407253       -0.89471266345765       -0.24778349851634
C            4.81411054748222       -0.03721473682562        0.16377642904023
C            6.03554448156959       -0.54308438892128        0.56357722748658
C            6.26955006375500       -1.91174243021470        0.55727265421578
C            5.27875680055363       -2.77739237848792        0.12637933443878
C            4.05140613973005       -2.27925109330798       -0.28142251678235
O            3.12333286131510       -3.17701974277803       -0.72250378465142
C            1.92283769432293       -2.69694915480086       -1.15510455753221
C            1.00115003103044       -3.62315091652719       -1.61847496012178
C           -0.24702663185890       -3.20591519372881       -2.04606568675380
C           -0.57627816016170       -1.86012299830076       -1.99160274841224
C            0.33238659566399       -0.92945168617715       -1.52432143464176
C            1.60750796915139       -1.32471255189711       -1.11545557423355
C            1.87924225519372        1.70007728290769       -1.64905101133507
C            1.40660984615525        2.97853994387082       -1.50572976197745
C           -1.27798470370394        3.55118764935935        0.22837213963406
C           -1.40475696286037        2.97934597915196        1.50587994590265
C           -1.87818003017984        1.70116964273657        1.64914295984374
C           -2.21888594924158        0.94709527001736        0.51403792463518
N           -2.55138561536986       -0.42230603890111        0.64377372633661
C           -3.79195037377320       -0.89237230459097        0.24770315454814
C           -4.81408997352405       -0.03422406529958       -0.16385754074497
C           -6.03581582733554       -0.53932291891599       -0.56373977145135
C           -6.27066187739995       -1.90783741220987       -0.55752172266604
C           -5.28042250875466       -2.77411870237981       -0.12662525560045
C           -4.05278601990468       -2.27675201415322        0.28126154756710
O           -3.12528801262126       -3.17511314103976        0.72234540214513
C           -1.92450813970562       -2.69580607949071        1.15499847455387
C           -1.00340809012872       -3.62260327552721        1.61834455981423
C            0.24501773144489       -3.20616429975828        2.04598387024185
C            0.57510845745240       -1.86057431010974        1.99158857798433
C           -0.33296651232738       -0.92931596463766        1.52432938538313
C           -1.60832626862193       -1.32376399106008        1.11542262483278
C           -2.16855835974362        1.54309969477172       -0.75862720158538
C           -1.70065625655455        2.82328533789649       -0.89816375434299
H            1.61856877835558        3.29005380187613        1.86677063137742
H            2.47312480941731        0.97161510757498        1.62421524205369
H            4.63995983244883        1.02682475511259        0.15678085440438
H            6.81176909638961        0.13671413898275        0.87837228388799
H            7.22264615094974       -2.30342106106620        0.87450339302681
H            5.43626158536113       -3.84348874147861        0.09105169748621
H            1.28305519334545       -4.66353063404917       -1.62969687823979
H           -0.95927353267912       -3.92879527942510       -2.41038587217054
H           -1.55150148370649       -1.52963640493153       -2.31432129498065
H            0.05806889775855        0.11119850772438       -1.46730824247591
H            1.98451143138628        1.25859876899661       -2.62930748031805
H            1.10908490656424        3.57082602070997       -2.35707881243848
H           -1.10686815989955        3.57141245402090        2.35725423092713
H           -1.98373245393750        1.25971426887242        2.62937923375293
H           -4.63928932002976        1.02970854259017       -0.15680012052992
H           -6.81160886988627        0.14096997800359       -0.87853026062851
H           -7.22398384567278       -2.29891376712924       -0.87481345809407
H           -5.43858531868793       -3.84011942116743       -0.09136052405708
H           -1.28596537537881       -4.66280691775478        1.62950522141636
H            0.95680296001213       -3.92950616963329        2.41028829596511
H            1.55053098616368       -1.53070791298777        2.31434050962828
H           -0.05799672181186        0.11116483308640        1.46736349145520
H           -2.47248857547152        0.97321630078327       -1.62416169890781
H           -1.61649983289710        3.29113577783349       -1.86660966984462
