67
 energy: -114.753013270217 gnorm: 0.000046499142 xtb: 6.7.1 (edcfbbe)
O           -0.03541371850597        4.59737153258543       -1.23410362669750
S            0.00004878844890        3.84332089893169        0.00007585102472
O            0.03552727115398        4.59730661708671        1.23429430720518
C            1.39602622022502        2.71810928883986       -0.03444857545952
C            2.11436990380718        2.47340916323746        1.12087395529547
C            3.13640666113465        1.54220901996044        1.10242806247870
C            3.43246141257284        0.85651680772716       -0.07600322261886
N            4.46015309254374       -0.10513035268588       -0.09597799383390
C            5.78460234449544        0.25585187041382        0.17931118107147
C            6.16075448817115        1.56940714833957        0.43258810546069
C            7.48309517227781        1.89231216814811        0.69835033429496
C            8.45447851514230        0.91137687957052        0.70342540388884
C            8.10143514523482       -0.39939004782986        0.41831797538685
C            6.78425234485667       -0.72557019700212        0.15069284378346
O            6.52145814375708       -2.03969584365441       -0.15632969113172
C            5.21640367452583       -2.37864607019345       -0.42460145568995
C            4.96402393044933       -3.70754703514440       -0.71402873106351
C            3.66870907954985       -4.13647561538700       -0.96341108723559
C            2.62933143334852       -3.23015769236744       -0.89925494235907
C            2.87807940274798       -1.89657693474985       -0.61076076026894
C            4.17380590997264       -1.44330283307543       -0.39367318812569
C            2.70311422783631        1.12180939269351       -1.23647333054182
C            1.68003885895841        2.05018515374449       -1.21223214711782
C           -1.39595239835239        2.71813714314874        0.03454288889984
C           -1.68001421163231        2.05020216442971        1.21230837738085
C           -2.70310989391644        1.12184744688370        1.23650626970720
C           -3.43242836546747        0.85658705613738        0.07601064658775
N           -4.46014553643374       -0.10503381160337        0.09593714894466
C           -5.78457944639063        0.25599700961309       -0.17936363351441
C           -6.16068659479888        1.56957259508754       -0.43260189523298
C           -7.48301575716934        1.89253042956959       -0.69835632611754
C           -8.45443159061206        0.91162783471443       -0.70346531477081
C           -8.10143178767358       -0.39916156557040       -0.41840820162911
C           -6.78426076006540       -0.72539431488244       -0.15078909429148
O           -6.52151112797727       -2.03953812488475        0.15619334457376
C           -5.21647839795539       -2.37852745838629        0.42452205129548
C           -4.96415149441329       -3.70743630740621        0.71395901785128
C           -3.66886062750109       -4.13640418263609        0.96339832873526
C           -2.62945252531849       -3.23011818181792        0.89928651659425
C           -2.87814756881701       -1.89652930709201        0.61078374215251
C           -4.17385101213465       -1.44321546048342        0.39364118838005
C           -3.13632424621869        1.54229040195517       -1.10240190432430
C           -2.11426720533815        2.47346897777303       -1.12080456607731
H            1.86304918098510        3.01889303475629        2.01686869797541
H            3.70149490560894        1.33365707894576        1.99817086481708
H            5.41749028738686        2.35062989153046        0.41419963657855
H            7.74377520652700        2.92050175298967        0.89700155408295
H            9.48372702414405        1.15544988583822        0.91408156410798
H            8.83754756318335       -1.18746324556778        0.39211077631979
H            5.79762632906180       -4.39183182481260       -0.73476945620323
H            3.48291437367907       -5.17382673547826       -1.19289959731634
H            1.61340478544340       -3.55112939312052       -1.07057612627150
H            2.05368873916877       -1.20434349419992       -0.54767682897745
H            2.94610804384951        0.59916156373392       -2.14913393682820
H            1.11087095342615        2.28083511808604       -2.09848640974436
H           -1.11086585594607        2.28082741302376        2.09858179728590
H           -2.94614265342192        0.59919325173995        2.14915299592240
H           -5.41739736250202        2.35077087939720       -0.41417739929939
H           -7.74365777488001        2.92073225165674       -0.89699481843946
H           -9.48366530736208        1.15573616595815       -0.91415330451733
H           -8.83756727374189       -1.18721503475102       -0.39225095712105
H           -5.79777513741725       -4.39169646165224        0.73465910984921
H           -3.48310714212211       -5.17376154334255        1.19289206335909
H           -1.61354307076524       -3.55112093328947        1.07065160511989
H           -2.05373303390613       -1.20432112851846        0.54773493397647
H           -3.70139264972424        1.33376472560391       -1.99816330794880
H           -1.86291188516963        3.01896311774646       -2.01678330963036
