109
 energy: -164.368192072951 gnorm: 0.000044612726 xtb: 6.7.1 (edcfbbe)
C            6.66246286661687        2.11288151363184       -1.55166551035437
C            7.12744911523445        0.98488018957268       -0.68135638782801
C            8.47646413040617        0.67981591836198       -0.58870184293603
C            8.92341023548193       -0.36427848510369        0.21416658011206
N           10.29665882675191       -0.64756310693194        0.29669126543442
C           11.29119676957337        0.26376375112351        0.58583413288698
C           11.19036062329704        1.61280831382284        0.89877380291941
C           12.35702027056294        2.30061264398913        1.17392251301066
C           13.59796201134349        1.66717760855543        1.14884029871385
C           13.70271712080539        0.31967121889093        0.86118159199042
C           12.54449340291431       -0.39285975299093        0.58062875076302
C           12.28059798638813       -1.77042190267730        0.26674336566409
C           13.08997989291584       -2.88684274391837        0.10462811617648
C           12.49857401686940       -4.09144157108690       -0.22503541255982
C           11.12034111840202       -4.18751220083571       -0.40717782145293
C           10.29393360476111       -3.09082277916109       -0.25114599183504
C           10.87964283002473       -1.88256579142123        0.10245750345875
C            8.00540726089978       -1.12098203498667        0.93418233852980
C            6.65874643166935       -0.82677032486339        0.83926079305866
C            6.20875707359274        0.21862515136532        0.04235876804885
C            4.75700257051082        0.50192134678814       -0.04393084721610
C            4.03636906428600        0.05010388817221       -1.14308112943635
C            2.68298238675461        0.29933115770293       -1.25929244476696
C            2.02858218332301        1.00899788511370       -0.25671950990665
N            0.65904300247781        1.28713536722045       -0.36440802574772
C            0.08046425944903        2.53358773501398       -0.23615658957715
C            0.67391598770820        3.76377771964708        0.01498082148695
C           -0.14471082246850        4.87691345833345        0.07364520693802
C           -1.51952704658430        4.77867352478578       -0.12273941835247
C           -2.11297150129407        3.55957606281417       -0.40187712658068
C           -1.31236965882042        2.42983891249618       -0.46551348640811
C           -1.57839587874630        1.04156406220371       -0.74459752644788
C           -2.73413054579499        0.34705395231807       -1.04477202905461
C           -2.66568921938040       -1.04271638792612       -1.22515547599411
C           -3.83706344785437       -1.84658281311216       -1.57436958825174
O           -3.66740921006711       -2.87587652344322       -2.31314648544027
C           -5.14924254942691       -1.47464636157183       -1.12119198698671
C           -6.27659721043670       -2.04032208930146       -1.76746435864906
C           -7.55256895425144       -1.73745694260446       -1.37442983258595
C           -7.76719948611694       -0.87200096218306       -0.29603155140870
N           -9.09067989940613       -0.53536678448495        0.11069006841510
C           -9.63783467694166        0.65330833212631       -0.32022212629382
C           -8.89161628110860        1.48742561136283       -1.16754533317216
C           -9.40356354345001        2.68663160382250       -1.60675865972027
C          -10.67551354104713        3.07891936744246       -1.21426209332103
C          -11.42059122932180        2.25440773583939       -0.39101679187977
C          -10.93187608260265        1.03871495513343        0.06845255117006
C          -11.79646091503904        0.16671318359981        0.95273503079654
C          -12.15192094383155        0.95195250870279        2.23107785038402
C          -13.08031897424887       -0.19607541387155        0.17963324997470
C          -11.09043350259622       -1.11143224790433        1.35033080217775
C          -11.73683720226338       -2.03172920506471        2.16440455678285
C          -11.13038766056490       -3.20891364867718        2.56354619166918
C           -9.83468154541955       -3.48635455839407        2.15133500456703
C           -9.16781309734254       -2.59398860231718        1.34383276706982
C           -9.78302399203411       -1.40345887630831        0.92569696799472
C           -6.66998283875252       -0.35051474525483        0.39679145478554
C           -5.39088336158770       -0.64859524437105       -0.00024485888456
C           -1.40721663920810       -1.68009474827786       -1.16872575663961
C           -0.24804844914881       -0.99943318053145       -0.88142076261903
C           -0.33067746264743        0.37566045385702       -0.67497562526928
C            2.74523057976715        1.45401191095967        0.85078449720287
C            4.10450505758873        1.21184234927364        0.96909813851477
C            4.86253590199269        1.70086497252347        2.16584031117590
H            5.92274946307688        2.72042798354258       -1.03371156722502
H            7.49788974127722        2.74258450835614       -1.84708651108377
H            6.19109257508432        1.72294776164126       -2.45351064251723
H            9.19603153341313        1.25057141773014       -1.15782909494102
H           10.23214935492073        2.10817677892130        0.93661647865596
H           12.30579184972967        3.35197864166605        1.41692685778101
H           14.48758962364233        2.23962698419291        1.36719219514595
H           14.66348780840202       -0.17316421815001        0.85734578000432
H           14.15974966058329       -2.81109638462468        0.23055786438890
H           13.11079106977150       -4.97205761047764       -0.35353429289291
H           10.68858944043302       -5.13975206638741       -0.67920113131706
H            9.22915555165368       -3.17159054231915       -0.40924814747794
H            8.34965506877939       -1.92205260891076        1.57072000216186
H            5.94084581587986       -1.41524709136730        1.39216945212360
H            4.54761069916710       -0.50068606515270       -1.91935820357368
H            2.13456449647897       -0.03261348077621       -2.12784815980036
H            1.74120958583815        3.85388953704040        0.14633733678119
H            0.29334324713701        5.84415842630677        0.27158366479609
H           -2.12755902389621        5.66945586110574       -0.06597128175713
H           -3.17687474781498        3.48575288958731       -0.57072252014299
H           -3.66999426120958        0.87051200772617       -1.16314184969409
H           -6.09150414544755       -2.70970048944877       -2.59553554321036
H           -8.40236845604901       -2.15801425898002       -1.89338216460086
H           -7.90599282847117        1.17582090248145       -1.47547264118607
H           -8.81325561689463        3.31504397137654       -2.25632314709210
H          -11.08491526024069        4.01859554053472       -1.55214185485394
H          -12.41067260891996        2.57165623281816       -0.10348211088817
H          -12.79170274252665        0.36146996178555        2.87985094564742
H          -11.24462181997474        1.20316961790478        2.77724228360788
H          -12.67194424665173        1.87282372952778        1.98507819801033
H          -13.73541439839514       -0.81207999390273        0.78823939535286
H          -12.82667319074051       -0.74959755489586       -0.72261175243000
H          -13.62275922831695        0.69972214103306       -0.10728734499604
H          -12.74192984163869       -1.83020247134045        2.50031054420370
H          -11.66201965171693       -3.90359963828402        3.19558168964939
H           -9.34501100966191       -4.39739000673660        2.46032218187758
H           -8.15875595423965       -2.80411553910456        1.02573906017112
H           -6.84179732195026        0.28040783213098        1.25783332003733
H           -4.55733794152244       -0.27812817138248        0.57738396958687
H           -1.38446478004050       -2.74678190431227       -1.34084797498828
H            0.69301956093794       -1.52331226552515       -0.80582275585457
H            2.22412156399117        1.98227750921666        1.63589240193285
H            5.13701315209471        0.86332523067588        2.80632833485081
H            4.26119449425317        2.39534283864954        2.74689673481522
H            5.78361647116748        2.19462170744414        1.86137874605776
