109
 energy: -164.450148705926 gnorm: 0.000056289100 xtb: 6.7.1 (edcfbbe)
C            6.85820409639712        2.32894030419029       -1.32569954179159
C            7.27308851061561        1.07179650749514       -0.62306636119930
C            8.61440789842614        0.77497154181571       -0.43788795435527
C            9.00939466663287       -0.39061875170071        0.20997608416351
N           10.37546462796376       -0.66300439502209        0.39558078869196
C           11.29489511283339        0.18514204878852        0.97725341170076
C           11.10788108700068        1.44279410005729        1.53429149304926
C           12.20668219836567        2.07585304683059        2.08268684045228
C           13.46510494011306        1.47645129623627        2.08672285006646
C           13.65359046890278        0.21744850443923        1.55199142135021
C           12.56383359725890       -0.44006231954670        0.99489545852385
C           12.39061162740213       -1.72909935708639        0.38577843007096
C           13.25492481286745       -2.78013333357433        0.10577531608998
C           12.75160736177706       -3.90249431069052       -0.52158107867959
C           11.40693150419199       -3.98088396369159       -0.88034149725272
C           10.52780019905513       -2.94895952972305       -0.61341027666164
C           11.02339948653266       -1.82623951362692        0.03536925208124
C            8.04742343165705       -1.28090799610981        0.67278925645902
C            6.70880822014273       -0.99436275269573        0.48394149176927
C            6.31067781948226        0.17399454294348       -0.15261478758181
C            4.86513313206044        0.45115507046649       -0.32810693255529
C            4.23169982868089        0.08468262314439       -1.50841276682536
C            2.88129824398049        0.31640044238782       -1.69282359105341
C            2.14842019113812        0.91792366162027       -0.67735713535669
N            0.76818149043029        1.14887160630955       -0.83679104774354
C            0.12863897677102        2.36254713938817       -0.66578275001814
C            0.66417321334642        3.60801514227727       -0.37019887666495
C           -0.20706360811140        4.67693367541122       -0.27749867005025
C           -1.57732599238007        4.51928740115665       -0.47815694406689
C           -2.11376588412169        3.28515875002445       -0.78860312434762
C           -1.25712938475734        2.19610693571900       -0.88874379101170
C           -1.45333518378802        0.80605461249295       -1.19774808767097
C           -2.57499366763582        0.04485627777101       -1.47330155235536
C           -2.41744167905087       -1.31842396767292       -1.71594583007539
C           -3.56287308646086       -2.18593014864145       -2.03461028278418
O           -3.44261587242547       -3.20442894940805       -2.70457427033886
C           -4.89115544541644       -1.78614007203088       -1.49735179006893
C           -6.03124281565524       -2.03257029906348       -2.26001681590563
C           -7.28280171714871       -1.70254203155284       -1.77870773463054
C           -7.41163846854013       -1.14105229721184       -0.51236163562932
N           -8.69693398858541       -0.80544216267864       -0.00547834181522
C           -9.12554872653604        0.51083070239945       -0.07965000843038
C           -8.31515242542327        1.46684661929216       -0.69959828499814
C           -8.70997867305937        2.78571286683593       -0.78436473133506
C           -9.92717593591784        3.17480378855012       -0.25459349113405
C          -10.73700688902433        2.22754484357533        0.34519315350598
C          -10.36550213550731        0.89335374292992        0.44328918329533
C          -11.30748108950230       -0.09949227289383        1.09911585749657
C          -11.55017935346196        0.33726988596893        2.55622948382962
C          -12.63491353268729       -0.10892220911360        0.31775019686913
C          -10.73438053446285       -1.50493309800166        1.10325769338061
C          -11.46900077430712       -2.54132469313800        1.66348547735192
C          -10.99408462988441       -3.83949089682656        1.70851045308380
C           -9.74376784610394       -4.12032536371070        1.18745495887579
C           -8.99186631389114       -3.10976250952906        0.62548198128788
C           -9.47566687233766       -1.79919945218661        0.56795016946748
C           -6.27983712244680       -0.91601971900651        0.26458181022647
C           -5.02736828117788       -1.23362818029442       -0.22473322049583
C           -1.13477985432322       -1.89473344449935       -1.69261498228124
C           -0.01001757003270       -1.15822481914670       -1.40240294662109
C           -0.16862289601710        0.20340582972099       -1.16060376597031
C            2.77754937873995        1.28620388453082        0.50623614591819
C            4.13270635149880        1.06264801259345        0.69369981874972
C            4.79754296696915        1.45021114971520        1.97930698153854
H            6.14702387081037        2.89054534210582       -0.72196300453341
H            7.71969031306870        2.95844696950794       -1.53350226460563
H            6.36713854774762        2.08960847928981       -2.26836419920091
H            9.37099924713984        1.45074840101629       -0.81002503541338
H           10.13399081045892        1.90847519035070        1.54905399660102
H           12.08783546216351        3.05626891340749        2.52098398745286
H           14.30004094841372        2.00480781401202        2.52363231509397
H           14.62608817823705       -0.25209526472313        1.56816274566568
H           14.29966496309655       -2.71522155033012        0.37171917928305
H           13.40718443459640       -4.73123431760997       -0.74638598521448
H           11.04529470210523       -4.86717442386924       -1.38155171267723
H            9.49101877615540       -3.01213615526109       -0.90809654570104
H            8.35010475497093       -2.18174669913918        1.18507672136785
H            5.95685124130141       -1.68347308353423        0.84097604919745
H            4.80721151159460       -0.38745158129330       -2.29160639903152
H            2.39702400489376        0.04192841547432       -2.61786561965185
H            1.72552533240220        3.74031879334373       -0.22632418060004
H            0.18283799565339        5.65767692634962       -0.04767855536862
H           -2.22504762568257        5.37954892451316       -0.39536274733929
H           -3.17379889996774        3.16554515381791       -0.95477804425096
H           -3.54938052525664        0.50595359723293       -1.52237906130424
H           -5.91626491622257       -2.47717468464472       -3.23782240564325
H           -8.16610282974777       -1.88335651673512       -2.37314840907182
H           -7.36807837856637        1.16721494308028       -1.12188422309259
H           -8.06631655639390        3.50670703701185       -1.26697199586661
H          -10.24746707411732        4.20434783420129       -0.31187096676870
H          -11.68779139699445        2.54396494723461        0.74685259116433
H          -11.97353157454110        1.33714378883449        2.59561589639610
H          -12.23486231446162       -0.34250067173479        3.05573827104671
H          -10.60908097962956        0.34060352993923        3.10382834238581
H          -13.34313266256820       -0.80088191410987        0.76492678680773
H          -12.45720423004376       -0.41695769867075       -0.71141827336576
H          -13.08592497167791        0.87943163551621        0.30677309622626
H          -12.44305859263251       -2.33576739283537        2.08110813101930
H          -11.59321265459202       -4.62153738103717        2.15046673436559
H           -9.34902674084546       -5.12550198631032        1.21803735001591
H           -8.01455901324448       -3.33539330749504        0.22654546473656
H           -6.39098199868230       -0.49236534510083        1.25177915117311
H           -4.15397308686860       -1.07600799251606        0.39001161112794
H           -1.05770452806641       -2.95334816577653       -1.89379872513224
H            0.96233137288232       -1.62410151143601       -1.35906929739926
H            2.19391133372939        1.74076014211275        1.29363986272867
H            5.04765909730391        0.55936815390386        2.55512776515744
H            4.14331339370405        2.07654803811344        2.58042260238941
H            5.72633406738532        1.98459492635364        1.78853144022994
