  113
       -182.68961662
 C         -8.8723140444       -2.0379463730       -4.0396340352
 C         -8.3713144874       -0.8186702486       -3.5888678170
 C         -7.3327166988       -0.7563795152       -2.6796112512
 C         -6.8042688422       -1.9530349946       -2.2169043375
 C         -7.2890324680       -3.1947116520       -2.6885293045
 C         -8.3336994417       -3.2314733598       -3.6026811043
 C         -6.4973120047       -4.2105471348       -2.0529978522
 C         -6.5068645180       -5.5983449132       -2.0992232505
 C         -5.5996406916       -6.2926315507       -1.3240967638
 C         -4.7014215633       -5.6207720256       -0.4979125018
 C         -4.6731273140       -4.2407519235       -0.4347500750
 C         -5.5653647125       -3.5367102536       -1.2307373376
 N         -5.7621023829       -2.1746041493       -1.3386467635
 C         -5.0344377592       -1.1936811862       -0.6539190318
 C         -3.6449151359       -1.2267723407       -0.6709836249
 C         -2.9122053239       -0.2669911812        0.0215582035
 C         -1.4482610982       -0.2776012746       -0.0058016226
 C         -0.7083096775       -1.4397343074       -0.0396653231
 C          0.6928711237       -1.4463384871       -0.0631904290
 C          1.4431710116       -0.2906939078       -0.0715078692
 C          2.9074251840       -0.2901908327       -0.0863041513
 C          3.5945370336        0.6981641233       -0.7830375607
 C          4.9824450442        0.7515743869       -0.7484861103
 N          5.6511940360        1.7850507483       -1.4098953340
 C          5.3161458006        3.1259109143       -1.3392339759
 C          4.3105895076        3.7520204613       -0.6156451469
 C          4.2137292660        5.1275590850       -0.7076046489
 C          5.0964723106        5.8716896011       -1.4872680023
 C          6.1131028794        5.2561788712       -2.1893985458
 C          6.2302797855        3.8743255229       -2.1149419877
 C          7.1520963621        2.9321750335       -2.6854444005
 C          8.2393576608        3.0604814002       -3.5392230313
 C          8.9130795003        1.9201565097       -3.9287547324
 C          8.5029311908        0.6629764801       -3.4914077111
 C          7.4240740714        0.5103747537       -2.6413351854
 C          6.7600035345        1.6548188975       -2.2231366978
 C          5.6976318842       -0.2141069198       -0.0479664059
 C          5.0152802111       -1.2228387693        0.6227553897
 N          5.7309654663       -2.1992871403        1.3263214583
 C          6.7466771222       -1.9672545611        2.2325235595
 C          7.2592646107       -0.7651312523        2.6989038212
 C          8.2707985910       -0.8165899620        3.6387595723
 C          8.7607088449       -2.0304856267        4.1154881879
 C          8.2374492929       -3.2293109916        3.6741571192
 C          7.2199550562       -3.2034330690        2.7294622900
 C          6.4486239087       -4.2267580935        2.0809988119
 C          6.4592070505       -5.6140308787        2.1406220295
 C          5.5751921295       -6.3172777891        1.3469394763
 C          4.6990950615       -5.6548922447        0.4898979973
 C          4.6700759495       -4.2755381056        0.4130184189
 C          5.5389515690       -3.5624672490        1.2265454143
 C          3.6256416787       -1.2547287904        0.6144083884
 C          0.7219662483        0.9268206334       -0.0481027349
 N          1.2225097060        2.1656118323       -0.0383670680
 S          0.0150421574        3.2192398494       -0.0018959441
 N         -1.2029894989        2.1774025017        0.0117424368
 C         -0.7154982811        0.9335024341       -0.0056197146
 C         -3.5863585629        0.7212844911        0.7310323565
 C         -4.9744547935        0.7786398399        0.7183472091
 N         -5.6277380498        1.8124676382        1.3947461572
 C         -6.7146083411        1.6829185270        2.2370429373
 C         -7.3731318941        0.5393345817        2.6660725967
 C         -8.4265659325        0.6920951935        3.5474333090
 C         -8.8170962048        1.9485197154        4.0044448911
 C         -8.1489232877        3.0878698014        3.6027218595
 C         -7.0870248473        2.9594602060        2.7176110976
 C         -6.1761007343        3.9003347402        2.1278411432
 C         -6.0492246944        5.2810514728        2.2071052098
 C         -5.0479640405        5.8951026436        1.4819922846
 C         -4.1899265994        5.1508578084        0.6753290700
 C         -4.2969697196        3.7764849216        0.5780388804
 C         -5.2870506873        3.1517245614        1.3237072951
 C         -5.7038698316       -0.1844866516        0.0293086729
 H         -9.6872472616       -2.0439518281       -4.7478355698
 H         -8.8016723920        0.0993574475       -3.9610364860
 H         -6.9397696159        0.1944352711       -2.3531509582
 H         -8.7104617868       -4.1762416414       -3.9642139138
 H         -7.2146133296       -6.1192629641       -2.7260544168
 H         -5.5888553656       -7.3719691159       -1.3470630818
 H         -4.0150491724       -6.1913375513        0.1103797078
 H         -3.9884481238       -3.7295872453        0.2251605215
 H         -3.1419055240       -1.9788525268       -1.2582328104
 H         -1.2217861243       -2.3895366668       -0.0282937169
 H          1.1979649934       -2.4002496040       -0.0933734815
 H          3.0487963630        1.4231775183       -1.3622313519
 H          3.6243844265        3.1920538931        0.0000790199
 H          3.4360502243        5.6374168350       -0.1584483635
 H          4.9852617734        6.9447751269       -1.5340460135
 H          6.8073411449        5.8320409122       -2.7825200941
 H          8.5444015980        4.0337276475       -3.8927792058
 H          9.7629741039        1.9975953468       -4.5900585736
 H          9.0372220833       -0.2135241109       -3.8271252774
 H          7.1038011667       -0.4719508733       -2.3291442622
 H          6.7748820036       -0.1788896741       -0.0174787115
 H          6.8743955037        0.1817006326        2.3520011599
 H          8.6883503154        0.1057695724        4.0145171536
 H          9.5541389960       -2.0279080887        4.8477340233
 H          8.6049202343       -4.1698049358        4.0558189413
 H          7.1497640878       -6.1277076088        2.7921444825
 H          5.5655826019       -7.3963915572        1.3798965104
 H          4.0308401450       -6.2326040170       -0.1315957387
 H          4.0025862858       -3.7717037901       -0.2698095486
 H          3.1103919311       -2.0072544651        1.1904562778
 H         -3.0305477381        1.4437811697        1.3037017225
 H         -7.0671945763       -0.4425089854        2.3384499575
 H         -8.9558092341       -0.1837292412        3.8927214970
 H         -9.6469291894        2.0259656808        4.6907907726
 H         -8.4384740432        4.0603275869        3.9711340111
 H         -6.7240651819        5.8572992636        2.8218475186
 H         -4.9295833735        6.9672542290        1.5320023161
 H         -3.4240684582        5.6597668062        0.1089590463
 H         -3.6297241205        3.2159778950       -0.0576739917
 H         -6.7814571147       -0.1481153958        0.0189533054
