  56
  -95.4261352800000       0.334329252124801      !
 N          7.0108951277       -1.7192154967        0.7776182425
 C          6.0464496830       -1.1002671209        0.6959668954
 C          4.8593658484       -0.3513158891        0.5915964732
 C          3.7559032773       -0.6677210366        1.3928348557
 C          2.5856500722        0.0428425599        1.2638774985
 C          2.4765894920        1.0836625967        0.3342690185
 C          1.2159903367        1.8070133560        0.1438078776
 C          1.1939341928        3.1875073504        0.1216042628
 C         -0.0201464318        3.8837567319        0.0041408471
 C         -0.0273610384        5.2872832800        0.0061455888
 N         -0.0329805925        6.4379874676        0.0125534385
 C         -1.2267430532        3.1754837939       -0.1149180147
 C         -1.2351016534        1.7947595431       -0.1387808999
 C         -2.4884786153        1.0609592300       -0.3348196122
 C         -2.5854939600        0.0217928794       -1.2676440942
 C         -3.7524508879       -0.6915851823       -1.4099477010
 C         -4.8646156935       -0.3805658386       -0.6186133414
 C         -6.0501789022       -1.1293435200       -0.7403686612
 N         -7.0143258459       -1.7471336964       -0.8346132365
 C         -4.7885712534        0.6817285533        0.2902121277
 C         -3.6182854398        1.3914145387        0.4216681167
 C         -0.0060221960        1.1042324655        0.0023794410
 N          0.0006570510       -0.3076065331        0.0037230354
 C         -0.6688129389       -0.9985550301        0.9847139772
 C         -1.3119713410       -0.3623761665        2.0545648127
 C         -2.0195541746       -1.0933098514        2.9775290922
 C         -2.0961078731       -2.4913208330        2.8760344818
 C         -1.4171458965       -3.1479611868        1.8750580102
 C         -0.6874771468       -2.4238910356        0.9358553205
 O          0.0202557905       -3.1072144277        0.0119753000
 C          0.7205025740       -2.4196321463       -0.9142975792
 C          1.4651568905       -3.1385654670       -1.8455036418
 C          2.1397199983       -2.4780503043       -2.8469568209
 C          2.0425199347       -1.0818655598       -2.9578792909
 C          1.3191678506       -0.3558646394       -2.0434590036
 C          0.6809847013       -0.9948796310       -0.9720851159
 C          3.5991177342        1.4221146692       -0.4293098167
 C          4.7727732023        0.7156379595       -0.3108971936
 H          3.8337683937       -1.4693209565        2.1128021294
 H          1.7524117433       -0.1887461975        1.9128406330
 H          2.1121956985        3.7422605602        0.2415763647
 H         -2.1506339767        3.7210177510       -0.2342057166
 H         -1.7454384225       -0.2059923606       -1.9090696585
 H         -3.8211560300       -1.4912384689       -2.1329900772
 H         -5.6524600886        0.9312809118        0.8882252390
 H         -3.5582890563        2.1996008207        1.1359654984
 H         -1.2383462794        0.7085777802        2.1522860842
 H         -2.5153532804       -0.5891824786        3.7910542097
 H         -2.6663707349       -3.0515573769        3.5983559242
 H         -1.4229136672       -4.2230519739        1.7967680885
 H          1.4870184651       -4.2129694226       -1.7603080458
 H          2.7234640738       -3.0340865068       -3.5619223443
 H          2.5357746879       -0.5755480066       -3.7716196104
 H          1.2298799330        0.7132853348       -2.1480749531
 H          3.5302343952        2.2330194346       -1.1396701849
 H          5.6306338816        0.9703273564       -0.9153513813
  56
  -95.4261334200000       0.333671858281786      !
 N          7.0398264408       -1.6816497698        0.7539013497
 C          6.0683300433       -1.0737144050        0.6744911895
 C          4.8729092652       -0.3378885415        0.5713729741
 C          4.7734017044        0.7276923897       -0.3313613178
 C          3.5932780335        1.4240796173       -0.4448214112
 C          2.4769846594        1.0769686220        0.3241120313
 C          1.2132027426        1.7975388779        0.1440231924
 C          1.1914557780        3.1780630263        0.1282196891
 C         -0.0227147875        3.8758964605        0.0201459095
 C         -0.0288287923        5.2793734111        0.0302014850
 N         -0.0329836941        6.4300516886        0.0391349117
 C         -1.2296935136        3.1687672323       -0.0999086660
 C         -1.2387297908        1.7880839897       -0.1301778989
 C         -2.4927358361        1.0578541956       -0.3341159249
 C         -2.5878164620        0.0231931239       -1.2721901801
 C         -3.7586378538       -0.6806106122       -1.4298127603
 C         -4.8766586082       -0.3648440638       -0.6486782250
 C         -6.0677759935       -1.1012419629       -0.7898058873
 N         -7.0363310283       -1.7088309789       -0.9021670571
 C         -4.8012134882        0.6910404285        0.2677826947
 C         -3.6271225033        1.3913096801        0.4144441961
 C         -0.0099732530        1.0957848923        0.0073955718
 N         -0.0053135633       -0.3160078691        0.0117405453
 C         -0.6694969086       -1.0040153652        0.9988325123
 C         -1.3151860784       -0.3645204562        2.0649142281
 C         -2.0128573875       -1.0937852264        2.9970169649
 C         -2.0752092808       -2.4933237469        2.9094081723
 C         -1.3942565360       -3.1523337950        1.9114937077
 C         -0.6763527905       -2.4296765235        0.9618838741
 O          0.0323024631       -3.1154589464        0.0405108166
 C          0.7217748388       -2.4304298961       -0.8958015168
 C          1.4649110466       -3.1512086743       -1.8265247445
 C          2.1293183999       -2.4934601928       -2.8367466191
 C          2.0241157920       -1.0984733618       -2.9557866172
 C          1.3028897190       -0.3704845542       -2.0414570698
 C          0.6734659847       -1.0063215297       -0.9627606554
 C          2.5976093624        0.0351901563        1.2509990404
 C          3.7746341081       -0.6651506431        1.3753554085
 H          5.6267549117        0.9901996019       -0.9388421076
 H          3.5145169349        2.2344856007       -1.1547599643
 H          2.1106811256        3.7317535153        0.2457223483
 H         -2.1534434349        3.7153502096       -0.2154227157
 H         -1.7434893995       -0.2076224545       -1.9068021398
 H         -3.8261621704       -1.4757987285       -2.1579136144
 H         -5.6689742014        0.9436995308        0.8588430947
 H         -3.5682928925        2.1951451059        1.1337586702
 H         -1.2518494570        0.7078609438        2.1531951570
 H         -2.5112886541       -0.5867972696        3.8071623555
 H         -2.6366893190       -3.0525571862        3.6396290130
 H         -1.3895911739       -4.2281796908        1.8430624234
 H          1.4936481951       -4.2248840430       -1.7343553824
 H          2.7112417173       -3.0509712069       -3.5520365026
 H          2.5094345161       -0.5948746105       -3.7759578871
 H          1.2073435796        0.6976102928       -2.1518063951
 H          1.7683179270       -0.2052317710        1.9017933525
 H          3.8618672720       -1.4672240855        2.0937111155
  56
  -95.4261286700000       0.331998889593413      !
 N          6.7203324651       -1.7096208317        2.1041621522
 C          5.8065367386       -1.0922561457        1.7823431936
 C          4.6802424746       -0.3460574125        1.3878152652
 C          3.9871191090       -0.6852474216        0.2197368242
 C          2.8667872894        0.0235557928       -0.1456256364
 C          2.4018306115        1.0853850916        0.6389022397
 C          1.1753501687        1.8088927880        0.2899108522
 C          1.1580788276        3.1888239614        0.2563394798
 C          0.0026298549        3.8812163419       -0.1426480865
 C          0.0056518758        5.2840019362       -0.1897758980
 N          0.0080589063        6.4339890049       -0.2285733807
 C         -1.1554484569        3.1697371270       -0.4939025293
 C         -1.1844596616        1.7901425793       -0.4301474888
 C         -2.4173323495        1.0576326854       -0.7311297982
 C         -3.1480516778        1.3648267226       -1.8846182683
 C         -4.2775092660        0.6542347689       -2.2157416179
 C         -4.7177881425       -0.3855494971       -1.3877923239
 C         -5.8563618652       -1.1373290306       -1.7332677292
 N         -6.7797298128       -1.7585772058       -2.0186411976
 C         -4.0179913568       -0.6716888250       -0.2094294691
 C         -2.8869405057        0.0421628722        0.1102156374
 C         -0.0069864747        1.1031982320       -0.0440005535
 N         -0.0072448631       -0.3073071056        0.0160290161
 C          0.2339483017       -0.9419374208        1.2107741999
 C          0.3816384503       -0.2491912763        2.4196717477
 C          0.6895095343       -0.9225620849        3.5765477036
 C          0.8437403872       -2.3179239933        3.5723486238
 C          0.6345238127       -3.0310059728        2.4140110930
 C          0.3121890638       -2.3658328230        1.2340025151
 O          0.0489588280       -3.1038640374        0.1353057828
 C         -0.2473670926       -2.4725880418       -1.0201535848
 C         -0.5386492013       -3.2489467238       -2.1387522968
 C         -0.7782303156       -2.6465926283       -3.3528030708
 C         -0.6859856977       -1.2513006375       -3.4754686514
 C         -0.4062957523       -0.4692837070       -2.3812946910
 C         -0.2282133714       -1.0497694249       -1.1185919543
 C          3.1270463649        1.4455229133        1.7797084188
 C          4.2460284579        0.7406360373        2.1563818686
 H          4.3411549081       -1.5034834134       -0.3902995352
 H          2.3593651627       -0.2271306150       -1.0669616842
 H          2.0522762175        3.7443772513        0.4953028492
 H         -2.0454883772        3.7137100328       -0.7720896807
 H         -2.8013924939        2.1546083903       -2.5351008900
 H         -4.8277290582        0.8854162296       -3.1158173107
 H         -4.3760490713       -1.4531136918        0.4449289358
 H         -2.3759797052       -0.1661643756        1.0400418469
 H          0.2425800471        0.8196927369        2.4348172082
 H          0.8082836074       -0.3751787652        4.4974266809
 H          1.1016635055       -2.8322933301        4.4834115938
 H          0.7042763183       -4.1064677343        2.3900224854
 H         -0.5597065306       -4.3203688287       -2.0234834060
 H         -1.0116770058       -3.2472682820       -4.2163960184
 H         -0.8294228740       -0.7895931568       -4.4388302100
 H         -0.3125337514        0.5991794634       -2.4884695007
 H          2.7845284658        2.2724874747        2.3844555444
 H          4.7918586767        1.0118775667        3.0477589959
