  56
  -95.0856881346000        1.00000000000000      !
 N          7.0108951277       -1.7192154967        0.7776182425
 C          6.0464496830       -1.1002671209        0.6959668954
 C          4.8593658484       -0.3513158891        0.5915964732
 C          3.7559032773       -0.6677210366        1.3928348557
 C          2.5856500722        0.0428425599        1.2638774985
 C          2.4765894920        1.0836625967        0.3342690185
 C          1.2159903367        1.8070133560        0.1438078776
 C          1.1939341928        3.1875073504        0.1216042628
 C         -0.0201464318        3.8837567319        0.0041408471
 C         -0.0273610384        5.2872832800        0.0061455888
 N         -0.0329805925        6.4379874676        0.0125534385
 C         -1.2267430532        3.1754837939       -0.1149180147
 C         -1.2351016534        1.7947595431       -0.1387808999
 C         -2.4884786153        1.0609592300       -0.3348196122
 C         -2.5854939600        0.0217928794       -1.2676440942
 C         -3.7524508879       -0.6915851823       -1.4099477010
 C         -4.8646156935       -0.3805658386       -0.6186133414
 C         -6.0501789022       -1.1293435200       -0.7403686612
 N         -7.0143258459       -1.7471336964       -0.8346132365
 C         -4.7885712534        0.6817285533        0.2902121277
 C         -3.6182854398        1.3914145387        0.4216681167
 C         -0.0060221960        1.1042324655        0.0023794410
 N          0.0006570510       -0.3076065331        0.0037230354
 C         -0.6688129389       -0.9985550301        0.9847139772
 C         -1.3119713410       -0.3623761665        2.0545648127
 C         -2.0195541746       -1.0933098514        2.9775290922
 C         -2.0961078731       -2.4913208330        2.8760344818
 C         -1.4171458965       -3.1479611868        1.8750580102
 C         -0.6874771468       -2.4238910356        0.9358553205
 O          0.0202557905       -3.1072144277        0.0119753000
 C          0.7205025740       -2.4196321463       -0.9142975792
 C          1.4651568905       -3.1385654670       -1.8455036418
 C          2.1397199983       -2.4780503043       -2.8469568209
 C          2.0425199347       -1.0818655598       -2.9578792909
 C          1.3191678506       -0.3558646394       -2.0434590036
 C          0.6809847013       -0.9948796310       -0.9720851159
 C          3.5991177342        1.4221146692       -0.4293098167
 C          4.7727732023        0.7156379595       -0.3108971936
 H          3.8337683937       -1.4693209565        2.1128021294
 H          1.7524117433       -0.1887461975        1.9128406330
 H          2.1121956985        3.7422605602        0.2415763647
 H         -2.1506339767        3.7210177510       -0.2342057166
 H         -1.7454384225       -0.2059923606       -1.9090696585
 H         -3.8211560300       -1.4912384689       -2.1329900772
 H         -5.6524600886        0.9312809118        0.8882252390
 H         -3.5582890563        2.1996008207        1.1359654984
 H         -1.2383462794        0.7085777802        2.1522860842
 H         -2.5153532804       -0.5891824786        3.7910542097
 H         -2.6663707349       -3.0515573769        3.5983559242
 H         -1.4229136672       -4.2230519739        1.7967680885
 H          1.4870184651       -4.2129694226       -1.7603080458
 H          2.7234640738       -3.0340865068       -3.5619223443
 H          2.5357746879       -0.5755480066       -3.7716196104
 H          1.2298799330        0.7132853348       -2.1480749531
 H          3.5302343952        2.2330194346       -1.1396701849
 H          5.6306338816        0.9703273564       -0.9153513813
