  66
       -107.49597834
 C          0.6170820087        0.0087551497       -0.0144827811
 C         -0.6170716238        0.0084971574       -0.0142218347
 C         -1.9845468923        0.0075569449       -0.0104296443
 C         -2.7190370464        0.0160631523        1.2139574456
 C         -4.0824053655        0.0037971210        1.2131585145
 C         -4.7987552918        0.0035169871        0.0007895077
 N         -6.2057908506        0.0011702461        0.0050562972
 C         -6.9174448442        1.0320069472       -0.5978211341
 C         -6.2851691169        2.1399696821       -1.1603392743
 C         -7.0217433322        3.1458894666       -1.7594281428
 C         -8.4030614933        3.0768427193       -1.7992150400
 C         -9.0519945285        2.0040867818       -1.2089659308
 C         -8.3216434939        0.9949012685       -0.6057172055
 O         -9.0284685291       -0.0113938126       -0.0060091561
 C         -8.3173010421       -1.0079839439        0.6045340880
 C         -9.0438367212       -2.0208195431        1.2064174820
 C         -8.3906140140       -3.0846942929        1.8077191606
 C         -7.0084428551       -3.1413702699        1.7802741648
 C         -6.2756725087       -2.1321941028        1.1818125122
 C         -6.9127399840       -1.0329122252        0.6080983778
 C         -4.0917544223        0.0066662469       -1.2171618642
 C         -2.7284562931       -0.0018376734       -1.2289792463
 C          1.9845160107        0.0079599380       -0.0113958203
 C          2.7278868231        0.0141803744       -1.2303108678
 C          4.0911379945        0.0016026946       -1.2190923968
 C          4.7987420195        0.0038546662       -0.0014555821
 N          6.2057256214        0.0000647843        0.0023408109
 C          6.9173433964        1.0308895444        0.6054600604
 C          6.2853112795        2.1339509143        1.1776429131
 C          7.0225532397        3.1393553323        1.7770221225
 C          8.4043183585        3.0751383189        1.8067260459
 C          9.0527640732        2.0076350328        1.2066248108
 C          8.3217528538        0.9986251521        0.6037558465
 O          9.0284614602       -0.0017048357       -0.0058150304
 C          8.3171568864       -1.0044184022       -0.6062089139
 C          9.0430933262       -2.0171595771       -1.2089583213
 C          8.3894394022       -3.0868498460       -1.7995109638
 C          7.0077839439       -3.1493472283       -1.7604059605
 C          6.2756354320       -2.1397902789       -1.1619502145
 C          6.9127748820       -1.0346183670       -0.5994441965
 C          4.0829081499        0.0082454559        1.2112376611
 C          2.7195533611        0.0002115851        1.2126514873
 H         -2.1694724928        0.0421215910        2.1431798694
 H         -4.6317382984        0.0257623546        2.1440202570
 H         -5.2107132131        2.2128464682       -1.1150946716
 H         -6.5070522160        3.9903257931       -2.1908435189
 H         -8.9779719575        3.8578307469       -2.2707734614
 H        -10.1277335854        1.9324326174       -1.1980043070
 H        -10.1200427133       -1.9591128274        1.1850740637
 H         -8.9626761868       -3.8684455449        2.2781498297
 H         -6.4899044043       -3.9784613093        2.2213715569
 H         -5.2003283506       -2.1961947738        1.1461948145
 H         -4.6486367045       -0.0154232171       -2.1435891047
 H         -2.1864084528       -0.0261460296       -2.1626692480
 H          2.1855026906        0.0380779664       -2.1637378758
 H          4.6476145920        0.0200527319       -2.1457562937
 H          5.2104276062        2.2038568460        1.1399277379
 H          6.5078726035        3.9794756696        2.2166768255
 H          8.9798160793        3.8558518372        2.2780237594
 H         10.1286396168        1.9400410702        1.1872830919
 H         10.1191573306       -1.9509267264       -1.1966573063
 H          8.9609077616       -3.8707902653       -2.2701348168
 H          6.4892750933       -3.9911773983       -2.1925815345
 H          5.2008225146       -2.2074387409       -1.1178061333
 H          4.6325768385       -0.0142208881        2.1420085436
 H          2.1703388893       -0.0226562356        2.1421924762
