  43
        -69.85921327
 N         -6.7258955857       -3.9202606483       -0.0267168793
 C         -5.7860633516       -3.2622242792       -0.0138464717
 C         -4.6316667614       -2.4489025196        0.0010449273
 C         -3.4321477224       -2.9240040031       -0.5337455857
 C         -2.3128369628       -2.1204512801       -0.5175366697
 C         -2.3645443668       -0.8340282901        0.0218131704
 C         -1.1477524384       -0.0087373487        0.0141042875
 C         -1.1937044992        1.3839269345       -0.0054899157
 C         -0.0012120048        2.1020725695        0.0079371741
 C         -0.0023818879        3.5722070039        0.0028290066
 C         -0.8814897639        4.2739078760       -0.8184107732
 C         -0.8772576527        5.6562224803       -0.8289513837
 C         -0.0034809779        6.3557870926       -0.0131528228
 C          0.8704821467        5.6662504720        0.8107313587
 C          0.8758871801        4.2837069997        0.8161285501
 C          1.1925175080        1.3860026198        0.0228105338
 C          1.1491638594       -0.0067701066        0.0014486546
 C          2.3668700433       -0.8306860825       -0.0107342324
 C          3.5663536901       -0.3641949380       -0.5480120927
 C          4.6924471604       -1.1608225514       -0.5471479123
 C          4.6340854023       -2.4458592159       -0.0052021321
 C          5.7878680685       -3.2602085441        0.0006180371
 N          6.7275608751       -3.9183720049        0.0046857053
 C          3.4343573289       -2.9261508479        0.5245925301
 C          2.3151695578       -2.1223366692        0.5163269954
 N          0.0012092117       -0.6751020092        0.0068041742
 C         -3.5636181743       -0.3729303476        0.5644323273
 C         -4.6896905301       -1.1695653481        0.5561269936
 H         -3.3931868996       -3.9172771532       -0.9566491707
 H         -1.3771197773       -2.4711704559       -0.9251319213
 H         -2.1378783075        1.9053428551       -0.0277965133
 H         -1.5531098557        3.7318277606       -1.4687044511
 H         -1.5573594026        6.1896794626       -1.4764455814
 H         -0.0036168473        7.4354132402       -0.0198204666
 H          1.5504203481        6.2074963041        1.4518956426
 H          1.5479064706        3.7500510164        1.4729435652
 H          2.1355585518        1.9094462070        0.0455589129
 H          3.6181279368        0.6191183339       -0.9911139766
 H          5.6207057245       -0.8006254595       -0.9661547355
 H          3.3948469033       -3.9240759246        0.9357084240
 H          1.3788774276       -2.4776215570        0.9176881932
 H         -3.6149190474        0.6059460980        1.0172280476
 H         -5.6176784218       -0.8136915829        0.9793890910
  43
        -69.85909623
 N         -6.7203759507       -3.9263809565        0.1351514594
 C         -5.7819669290       -3.2668579081        0.1085312701
 C         -4.6292418336       -2.4516365350        0.0766780623
 C         -3.4190043151       -2.9285242049        0.5851302322
 C         -2.3013639162       -2.1230738255        0.5530338711
 C         -2.3651203810       -0.8328670567        0.0237434428
 C         -1.1488755733       -0.0069152945        0.0110369912
 C         -1.1939962168        1.3859450763        0.0296414723
 C         -0.0013751691        2.1037178715       -0.0007775594
 C         -0.0016299865        3.5734604533       -0.0003263555
 C         -0.9230173847        4.2809914766       -0.7684852099
 C         -0.9188381422        5.6633425753       -0.7705216132
 C         -0.0015932545        6.3577559555        0.0006402579
 C          0.9156536570        5.6629095980        0.7713092236
 C          0.9197331094        4.2805227290        0.7682412674
 C          1.1918897289        1.3869324942       -0.0314890893
 C          1.1482606789       -0.0059002781       -0.0125108154
 C          2.3653729804       -0.8305341958       -0.0250316313
 C          3.5763382787       -0.3642638785        0.4862745052
 C          4.7016479331       -1.1614457873        0.4624470677
 C          4.6310512465       -2.4471165095       -0.0769073548
 C          5.7850045439       -3.2605881635       -0.1062502592
 N          6.7245182426       -3.9188094996       -0.1295698703
 C          3.4201475435       -2.9273447980       -0.5803065106
 C          2.3017809870       -2.1228880016       -0.5488576740
 N         -0.0000659994       -0.6733295382       -0.0005147602
 C         -3.5752354695       -0.3700455582       -0.4926902182
 C         -4.6998212787       -1.1683200573       -0.4683597320
 H         -3.3704320334       -3.9245391258        0.9999619876
 H         -1.3575164722       -2.4753509695        0.9396509585
 H         -2.1357055138        1.9074039083        0.1017274300
 H         -1.6292299620        3.7436139288       -1.3850978076
 H         -1.6333805297        6.2010526664       -1.3761121310
 H         -0.0016449925        7.4373909311        0.0009916804
 H          1.6303357494        6.2000604043        1.3772057619
 H          1.6263455281        3.7427849584        1.3841120211
 H          2.1329724790        1.9094256735       -0.1039262760
 H          3.6382910435        0.6195406875        0.9264399480
 H          5.6388052207       -0.8016365567        0.8613439040
 H          3.3709244249       -3.9261077326       -0.9891648580
 H          1.3567431824       -2.4783338398       -0.9301990453
 H         -3.6368152418        0.6120714628       -0.9369901285
 H         -5.6363007927       -0.8111294229       -0.8711646712
  43
        -69.85865616
 N         -6.7456942358       -3.9055533448        0.0561337146
 C         -5.8035251440       -3.2509192516        0.0612789229
 C         -4.6456210793       -2.4424999858        0.0651316991
 C         -3.4547698439       -2.9214642937       -0.4850846015
 C         -2.3320828926       -2.1227245819       -0.4795664989
 C         -2.3702514558       -0.8373427361        0.0628355170
 C         -1.1506276459       -0.0157411276        0.0434257955
 C         -1.1954911307        1.3770208079        0.0228361706
 C         -0.0027151392        2.0943189449       -0.0029767810
 C         -0.0012784889        3.5635310427       -0.0500813977
 C         -0.8926409723        4.2453118594       -0.8746411318
 C         -0.8830588375        5.6268281908       -0.9247182117
 C          0.0080590539        6.3455779464       -0.1452986133
 C          0.8938633414        5.6761199274        0.6825632240
 C          0.8937764719        4.2944454487        0.7270827072
 C          1.1903953918        1.3772029655        0.0105338180
 C          1.1456224980       -0.0156140225        0.0274033295
 C          2.3662667526       -0.8356246377        0.0236435630
 C          3.5623223065       -0.3733747268        0.5719890992
 C          4.6939569631       -1.1617318488        0.5548428062
 C          4.6454491928       -2.4344167257       -0.0163833771
 C          5.8057367728       -3.2390317512       -0.0412175162
 N          6.7506130667       -3.8893678220       -0.0632796740
 C          3.4495561198       -2.9111886148       -0.5573337069
 C          2.3247773489       -2.1156588118       -0.5306987002
 N         -0.0024303498       -0.6837965405        0.0281250983
 C         -3.5609818001       -0.3727813499        0.6209769349
 C         -4.6906410406       -1.1644533932        0.6245337345
 H         -3.4246301692       -3.9142677502       -0.9091140298
 H         -1.4035623892       -2.4791262043       -0.8972463482
 H         -2.1392314701        1.8997021681        0.0143708868
 H         -1.5782366201        3.6879410094       -1.4968207703
 H         -1.5726714999        6.1445730269       -1.5748944545
 H          0.0123466139        7.4245418896       -0.1830685746
 H          1.5872972644        6.2326453109        1.2956131392
 H          1.5754478577        3.7764548095        1.3864825372
 H          2.1334598236        1.8985572988       -0.0432626362
 H          3.6068699680        0.6005738363        1.0360769523
 H          5.6193832962       -0.8046417652        0.9830643769
 H          3.4173436654       -3.8994104043       -0.9919662209
 H          1.3927450593       -2.4699869093       -0.9421058410
 H         -3.6026839031        0.6050154865        1.0779088746
 H         -5.6119466582       -0.8053072669        1.0597585673
  43
        -69.85842394
 N         -6.7026760782       -3.9765578679        0.0366509879
 C         -5.7739359591       -3.3030241543        0.0226799460
 C         -4.6322775260       -2.4723685712        0.0074545433
 C         -3.3608336220       -3.0217616084        0.1868716281
 C         -2.2554956318       -2.2004170089        0.1741652563
 C         -2.3816047458       -0.8211710307       -0.0141060693
 C         -1.1648216161        0.0064101765       -0.0159780064
 C         -1.1931316180        1.4003918592        0.0064315714
 C          0.0052614233        2.1092688491        0.0063693585
 C          0.0137027228        3.5789229839        0.0434647325
 C         -0.8754651547        4.3105448127       -0.7396007012
 C         -0.8620501340        5.6926094438       -0.7084909986
 C          0.0311295372        6.3615541149        0.1117918547
 C          0.9158669621        5.6419284518        0.8976185227
 C          0.9121344273        4.2599635429        0.8608350249
 C          1.1938477858        1.3865486952       -0.0262769190
 C          1.1354419652       -0.0056221785       -0.0457927663
 C          2.3508874782       -0.8338314868       -0.0603597217
 C          3.5223636804       -0.4022419179       -0.6812221340
 C          4.6513043052       -1.1949573395       -0.6771003044
 C          4.6239132591       -2.4391701776       -0.0448647249
 C          5.7818831928       -3.2475245723       -0.0316782050
 N          6.7240574575       -3.9019114571       -0.0195195348
 C          3.4519567335       -2.8843227393        0.5703611565
 C          2.3290751013       -2.0855396845        0.5555931372
 N         -0.0158071521       -0.6642954237       -0.0303521874
 C         -3.6567900101       -0.2863563115       -0.2030467217
 C         -4.7719166235       -1.0982057699       -0.1914210940
 H         -3.2557623620       -4.0867443178        0.3334202963
 H         -1.2666133681       -2.6102321166        0.3055629737
 H         -2.1245078395        1.9408624734        0.0612064774
 H         -1.5622692044        3.7925811291       -1.3937323132
 H         -1.5500163962        6.2497141363       -1.3268952816
 H          0.0383257340        7.4408445003        0.1380023410
 H          1.6117183699        6.1593434583        1.5414535489
 H          1.5936595256        3.7017774996        1.4867674382
 H          2.1424997679        1.9004828541       -0.0250575004
 H          3.5468712747        0.5496153436       -1.1906916917
 H          5.5579865616       -0.8629281037       -1.1612899177
 H          3.4367159881       -3.8504795121        1.0530589074
 H          1.4163372576       -2.4141671556        1.0278791771
 H         -3.7920077313        0.7706775179       -0.3720164137
 H         -5.7565516807       -0.6786089083       -0.3380181584
  43
        -69.85748254
 N         -6.6603684053       -4.0078572820        0.0809769035
 C         -5.7375951793       -3.3262011884        0.0688024261
 C         -4.6033831748       -2.4854012369        0.0535442997
 C         -3.3197920356       -3.0347638422        0.0774619252
 C         -2.2224435956       -2.2030222773        0.0634015658
 C         -2.3650835488       -0.8131017090        0.0236001449
 C         -1.1541417744        0.0247215037        0.0081591513
 C         -1.1948011883        1.4189961402        0.0065520367
 C         -0.0006955521        2.1326725023       -0.0052010217
 C         -0.0014498951        3.6031428770       -0.0032424479
 C         -0.8728715054        4.3107007272       -0.8270126649
 C         -0.8686517495        5.6932446968       -0.8264052016
 C         -0.0040777669        6.3861682384        0.0046067522
 C          0.8619499036        5.6902411306        0.8315870962
 C          0.8687417697        4.3077836975        0.8243801491
 C          1.1939666742        1.4199457815       -0.0167009602
 C          1.1544513294        0.0256196586       -0.0143674994
 C          2.3660963618       -0.8111878567       -0.0266453022
 C          3.6545901701       -0.2751872862        0.0097974086
 C          4.7631867683       -1.0958787269       -0.0027355459
 C          4.6058356513       -2.4815228132       -0.0496496515
 C          5.7406814159       -3.3215210044       -0.0615875561
 N          6.6641276817       -4.0020911695       -0.0734688742
 C          3.3229228531       -3.0318250146       -0.0843650200
 C          2.2248422337       -2.2009949829       -0.0738973180
 N          0.0004299311       -0.6334301369       -0.0018060625
 C         -3.6542115004       -0.2780262451       -0.0013669555
 C         -4.7620581240       -1.0996658685        0.0143704928
 H         -3.1988848063       -4.1077001836        0.1072636644
 H         -1.2263875517       -2.6147513819        0.0840634755
 H         -2.1281787046        1.9572931317        0.0357469470
 H         -1.5379095660        3.7729770742       -1.4877817017
 H         -1.5421698280        6.2317578742       -1.4766112803
 H         -0.0052663255        7.4657911857        0.0077453033
 H          1.5342757036        6.2266465323        1.4847720833
 H          1.5348239489        3.7676399096        1.4821297578
 H          2.1268471253        1.9590181715       -0.0481407479
 H          3.8090291730        0.7916701743        0.0498321525
 H          5.7570565683       -0.6733480599        0.0239377238
 H          3.2031565240       -4.1047253964       -0.1194374783
 H          1.2292571841       -2.6134115988       -0.1025199989
 H         -3.8098516231        0.7888966513       -0.0341013664
 H         -5.7564498646       -0.6778856136       -0.0037507057
