  43
  -69.6287470941000       0.382082791333584      !
 N         -6.7739601729       -3.8558912030        0.0803445855
 C         -5.8270210330       -3.2081573956        0.0817752395
 C         -4.6632308073       -2.4082260470        0.0810510664
 C         -3.4769314232       -2.8975617138       -0.4698716388
 C         -2.3484250230       -2.1070468177       -0.4688367676
 C         -2.3761915931       -0.8197786875        0.0697104021
 C         -1.1506299008       -0.0071877614        0.0455711500
 C         -1.1853448080        1.3857962572        0.0208148803
 C          0.0125952404        2.0942640278       -0.0093604441
 C          0.0246893053        3.5632764294       -0.0609491520
 C         -0.8631834943        4.2490551500       -0.8859584563
 C         -0.8435909825        5.6303058971       -0.9402669457
 C          0.0541960432        6.3448784794       -0.1646693056
 C          0.9366070151        5.6714728765        0.6636146235
 C          0.9264980866        4.2899776163        0.7123487237
 C          1.2004524834        1.3684796917        0.0041625436
 C          1.1455262942       -0.0239146628        0.0253622998
 C          2.3601321385       -0.8528443636        0.0218787124
 C          3.5605459679       -0.3976970722        0.5666302855
 C          4.6863515266       -1.1943635031        0.5498259644
 C          4.6274838930       -2.4683882536       -0.0174259101
 C          5.7818084794       -3.2815451252       -0.0419206694
 N          6.7218612668       -3.9388429573       -0.0637213885
 C          3.4271399865       -2.9380357969       -0.5547383210
 C          2.3082600818       -2.1342182681       -0.5284797244
 N         -0.0073789994       -0.6836718701        0.0302152438
 C         -3.5624607943       -0.3448223061        0.6286018897
 C         -4.6978708536       -1.1281911673        0.6366330144
 H         -3.4548354510       -3.8918423773       -0.8909248296
 H         -1.4233080390       -2.4715012339       -0.8871194979
 H         -2.1252515464        1.9153423596        0.0124756850
 H         -1.5539838028        3.6948298155       -1.5051840789
 H         -1.5305975109        6.1511068695       -1.5907612678
 H          0.0663042693        7.4236624626       -0.2057381787
 H          1.6352223460        6.2247676784        1.2736988703
 H          1.6055787869        3.7690169799        1.3720818017
 H          2.1472034963        1.8827523626       -0.0529431606
 H          3.6130712404        0.5773043419        1.0276630081
 H          5.6151531343       -0.8427569313        0.9752684771
 H          3.3868995433       -3.9273108088       -0.9862948378
 H          1.3729039314       -2.4829635281       -0.9371042959
 H         -3.5961678953        0.6346367555        1.0826242396
 H         -5.6157207111       -0.7609918514        1.0724390925
  43
  -69.6284549004000       0.280462338486699      !
 N         -6.7544225235       -3.8709945637       -0.0024967145
 C         -5.8097810388       -3.2198180230        0.0066529717
 C         -4.6494419664       -2.4149251400        0.0169587910
 C         -3.4544183114       -2.9004146911       -0.5185658089
 C         -2.3292330816       -2.1050297575       -0.5068487189
 C         -2.3705361256       -0.8166306999        0.0286677998
 C         -1.1477576628       -0.0002942955        0.0162232209
 C         -1.1835599923        1.3926030639       -0.0075353510
 C          0.0141751738        2.1020395543        0.0015270497
 C          0.0237470198        3.5721208845       -0.0080635359
 C         -0.8517197189        4.2777394314       -0.8298360125
 C         -0.8373982848        5.6599476549       -0.8446009640
 C          0.0429748456        6.3555730939       -0.0325344544
 C          0.9133908163        5.6621641003        0.7918546796
 C          0.9086950879        4.2796408647        0.8014593740
 C          1.2026615453        1.3773008237        0.0164084703
 C          1.1490843369       -0.0151757677       -0.0006256452
 C          2.3607080910       -0.8480147854       -0.0125150306
 C          3.5625776502       -0.3919485634       -0.5533991861
 C          4.6828149323       -1.1967899738       -0.5521578172
 C          4.6160573791       -2.4797132596       -0.0061891145
 C          5.7638626155       -3.3024634231        0.0000117935
 N          6.6987230381       -3.9674711063        0.0043740622
 C          3.4138286684       -2.9496004738        0.5272544336
 C          2.3005357869       -2.1376457420        0.5185772456
 N         -0.0037153013       -0.6750690007        0.0088612970
 C         -3.5652025239       -0.3451237327        0.5720628998
 C         -4.6970839837       -1.1335176721        0.5682405664
 H         -3.4235027993       -3.8952261727       -0.9385078118
 H         -1.3968594554       -2.4638239478       -0.9150773689
 H         -2.1239349826        1.9208449022       -0.0297111223
 H         -1.5284849258        3.7386166865       -1.4772476184
 H         -1.5147743189        6.1963988192       -1.4924785258
 H          0.0507220035        7.4351460930       -0.0424951625
 H          1.5984509488        6.2003639847        1.4301243300
 H          1.5780046367        3.7430781657        1.4586730358
 H          2.1495456964        1.8938953237        0.0358407855
 H          3.6207237653        0.5896092061       -0.9995922130
 H          5.6129080363       -0.8446702851       -0.9739529896
 H          3.3677801460       -3.9459564862        0.9414838881
 H          1.3624127072       -2.4848481768        0.9227265649
 H         -3.6085078592        0.6354725919        1.0219632619
 H         -5.6216619307       -0.7695780410        0.9921061488
  43
  -69.6283475385000       0.250342415203063      !
 N         -6.7486943179       -3.8767291189        0.1558287325
 C         -5.8055288708       -3.2241649210        0.1260011447
 C         -4.6469227770       -2.4174894065        0.0901934181
 C         -3.4394837942       -2.9017544892        0.5983260212
 C         -2.3160331808       -2.1045938049        0.5623522277
 C         -2.3711082359       -0.8154781814        0.0294409798
 C         -1.1488786405        0.0015177961        0.0126603775
 C         -1.1837919139        1.3947184906        0.0273198449
 C          0.0139988527        2.1036608033       -0.0068289937
 C          0.0244863394        3.5733612041       -0.0106065575
 C         -0.8927928030        4.2854056640       -0.7795113461
 C         -0.8785136069        5.6676777207       -0.7855312280
 C          0.0448735472        6.3575733201       -0.0176516908
 C          0.9581085801        5.6582506092        0.7537324759
 C          0.9520803569        4.2758677560        0.7546366002
 C          1.2019485258        1.3780836496       -0.0371433482
 C          1.1481680121       -0.0143327026       -0.0140964597
 C          2.3592019852       -0.8478772997       -0.0259431488
 C          3.5742658695       -0.3890106286        0.4823284940
 C          4.6936843547       -1.1944651685        0.4592243828
 C          4.6129291311       -2.4811264118       -0.0763292839
 C          5.7608635974       -3.3030954669       -0.1049419401
 N          6.6955075926       -3.9682336189       -0.1276787556
 C          3.3978360304       -2.9539284033       -0.5766539089
 C          2.2854244170       -2.1412281202       -0.5459590616
 N         -0.0049877760       -0.6733097608        0.0014228113
 C         -3.5785389029       -0.3453026157       -0.4866327696
 C         -4.7088932914       -1.1352591185       -0.4584357655
 H         -3.3976045508       -3.8969044778        1.0159538505
 H         -1.3742387805       -2.4626535324        0.9486636242
 H         -2.1215618896        1.9232542344        0.0992193504
 H         -1.6037868359        3.7514409844       -1.3935888128
 H         -1.5899642933        6.2088600306       -1.3916685632
 H          0.0527128531        7.4371763774       -0.0204068010
 H          1.6775550542        6.1918958956        1.3570827690
 H          1.6556156565        3.7347452311        1.3710652666
 H          2.1467212290        1.8934712881       -0.1123971334
 H          3.6440306870        0.5955725874        0.9195743599
 H          5.6340104860       -0.8403763572        0.8557758053
 H          3.3407355370       -3.9534728499       -0.9825675648
 H          1.3372747488       -2.4908457122       -0.9249566651
 H         -3.6335685987        0.6359605294       -0.9336704573
 H         -5.6433069896       -0.7723863440       -0.8609593531
  43
  -69.6272853404000       8.135457670272744E-002 !
 N         -6.7315101908       -3.9271663164        0.0660125364
 C         -5.7978974173       -3.2605132667        0.0475203021
 C         -4.6502250877       -2.4383086951        0.0267271638
 C         -3.3824429382       -2.9963412789        0.2053912552
 C         -2.2711525729       -2.1831719210        0.1872310035
 C         -2.3875779075       -0.8037408797       -0.0058602003
 C         -1.1647760082        0.0148879787       -0.0134530012
 C         -1.1828305687        1.4091127278        0.0038663161
 C          0.0207167859        2.1091827983       -0.0014378242
 C          0.0399989584        3.5788621500        0.0302070680
 C         -0.8455213437        4.3140944707       -0.7536096946
 C         -0.8219200734        5.6961287866       -0.7276375802
 C          0.0779475226        6.3615234182        0.0882111504
 C          0.9591314385        5.6383294906        0.8747544789
 C          0.9452005338        4.2563030539        0.8430870684
 C          1.2039052262        1.3776558355       -0.0340132556
 C          1.1352661666       -0.0141119894       -0.0482558334
 C          2.3445807578       -0.8512548787       -0.0624209999
 C          3.5178070739       -0.4305500299       -0.6874358994
 C          4.6409205433       -1.2314974737       -0.6828543678
 C          4.6058221061       -2.4731412535       -0.0459662240
 C          5.7578696242       -3.2899065404       -0.0323258000
 N          6.6952526649       -3.9511317411       -0.0198101162
 C          3.4320037049       -2.9074258599        0.5734633748
 C          2.3149698897       -2.1004945678        0.5582000697
 N         -0.0207370522       -0.6642689258       -0.0278621639
 C         -3.6592291260       -0.2602937482       -0.1939857059
 C         -4.7802407106       -1.0639005218       -0.1769198644
 H         -3.2848466160       -4.0615189649        0.3556447353
 H         -1.2850083453       -2.5997371143        0.3179785320
 H         -2.1101015792        1.9565926507        0.0586809870
 H         -1.5375460466        3.7987746482       -1.4043182601
 H         -1.5071575248        6.2559811745       -1.3465899310
 H          0.0931027679        7.4408212187        0.1104167184
 H          1.6601764118        6.1529964588        1.5151487864
 H          1.6240057677        3.6954442596        1.4695855695
 H          2.1562945395        1.8846246633       -0.0367688740
 H          3.5481538044        0.5192208861       -1.2004723327
 H          5.5489345262       -0.9079060498       -1.1702504147
 H          3.4107595712       -3.8716622354        1.0597608223
 H          1.4008990344       -2.4206837631        1.0336933297
 H         -3.7870788807        0.7970737603       -0.3665646665
 H         -5.7620999119       -0.6376409606       -0.3229120445
  43
  -69.6247827313000       5.757878273926275E-003 !
 N         -6.6895240614       -3.9588002059        0.0902956680
 C         -5.7617856942       -3.2839459292        0.0766244660
 C         -4.6214493510       -2.4515068833        0.0595218596
 C         -3.3419082662       -3.0102223765        0.0837942219
 C         -2.2385003579       -2.1865693503        0.0679196035
 C         -2.3709681430       -0.7957071993        0.0259165297
 C         -1.1539259902        0.0331925560        0.0086036722
 C         -1.1843675795        1.4277232844        0.0047449325
 C          0.0149307176        2.1326090653       -0.0086709170
 C          0.0249530363        3.6030467188       -0.0091047166
 C         -0.8416158301        4.3156332937       -0.8336590675
 C         -0.8272644661        5.6981083709       -0.8353029947
 C          0.0427229922        6.3860256752       -0.0057828454
 C          0.9039846823        5.6851142595        0.8219649685
 C          0.9006424272        4.3026342964        0.8170046554
 C          1.2043328346        1.4111282840       -0.0195128978
 C          1.1546017618        0.0171348367       -0.0148940546
 C          2.3600766113       -0.8285489703       -0.0263191326
 C          3.6524793235       -0.3019474574        0.0087101810
 C          4.7550265059       -1.1307608348       -0.0029529898
 C          4.5875051875       -2.5152888727       -0.0475462775
 C          5.7161596037       -3.3635998656       -0.0585940091
 N          6.6345885505       -4.0509379235       -0.0697557777
 C          3.3005792770       -3.0562297105       -0.0808273243
 C          2.2086211949       -2.2173584516       -0.0712503171
 N         -0.0042127178       -0.6334183740       -0.0007755497
 C         -3.6561510423       -0.2512395710        0.0006202669
 C         -4.7699820987       -1.0647112773        0.0181599438
 H         -3.2288540375       -4.0839661963        0.1152909729
 H         -1.2454794312       -2.6055532149        0.0888330726
 H         -2.1137626270        1.9728930794        0.0334559411
 H         -1.5108618851        3.7817256230       -1.4932728833
 H         -1.4970989466        6.2404865108       -1.4861015128
 H          0.0494474366        7.4656320120       -0.0044005165
 H          1.5805053443        6.2176379888        1.4739938294
 H          1.5630325178        3.7586923393        1.4753524693
 H          2.1411249616        1.9432975128       -0.0522216219
 H          3.8147495256        0.7638131066        0.0469440560
 H          5.7519774065       -0.7154826477        0.0226152768
 H          3.1729386745       -4.1282790764       -0.1141036510
 H          1.2100283659       -2.6225134677       -0.0987837288
 H         -3.8039825626        0.8167407616       -0.0337847784
 H         -5.7612640134       -0.6356846168       -0.0002298715
