  43
        -69.85921327
 N         -6.7258955857       -3.9202606483       -0.0267168793
 C         -5.7860633516       -3.2622242792       -0.0138464717
 C         -4.6316667614       -2.4489025196        0.0010449273
 C         -3.4321477224       -2.9240040031       -0.5337455857
 C         -2.3128369628       -2.1204512801       -0.5175366697
 C         -2.3645443668       -0.8340282901        0.0218131704
 C         -1.1477524384       -0.0087373487        0.0141042875
 C         -1.1937044992        1.3839269345       -0.0054899157
 C         -0.0012120048        2.1020725695        0.0079371741
 C         -0.0023818879        3.5722070039        0.0028290066
 C         -0.8814897639        4.2739078760       -0.8184107732
 C         -0.8772576527        5.6562224803       -0.8289513837
 C         -0.0034809779        6.3557870926       -0.0131528228
 C          0.8704821467        5.6662504720        0.8107313587
 C          0.8758871801        4.2837069997        0.8161285501
 C          1.1925175080        1.3860026198        0.0228105338
 C          1.1491638594       -0.0067701066        0.0014486546
 C          2.3668700433       -0.8306860825       -0.0107342324
 C          3.5663536901       -0.3641949380       -0.5480120927
 C          4.6924471604       -1.1608225514       -0.5471479123
 C          4.6340854023       -2.4458592159       -0.0052021321
 C          5.7878680685       -3.2602085441        0.0006180371
 N          6.7275608751       -3.9183720049        0.0046857053
 C          3.4343573289       -2.9261508479        0.5245925301
 C          2.3151695578       -2.1223366692        0.5163269954
 N          0.0012092117       -0.6751020092        0.0068041742
 C         -3.5636181743       -0.3729303476        0.5644323273
 C         -4.6896905301       -1.1695653481        0.5561269936
 H         -3.3931868996       -3.9172771532       -0.9566491707
 H         -1.3771197773       -2.4711704559       -0.9251319213
 H         -2.1378783075        1.9053428551       -0.0277965133
 H         -1.5531098557        3.7318277606       -1.4687044511
 H         -1.5573594026        6.1896794626       -1.4764455814
 H         -0.0036168473        7.4354132402       -0.0198204666
 H          1.5504203481        6.2074963041        1.4518956426
 H          1.5479064706        3.7500510164        1.4729435652
 H          2.1355585518        1.9094462070        0.0455589129
 H          3.6181279368        0.6191183339       -0.9911139766
 H          5.6207057245       -0.8006254595       -0.9661547355
 H          3.3948469033       -3.9240759246        0.9357084240
 H          1.3788774276       -2.4776215570        0.9176881932
 H         -3.6149190474        0.6059460980        1.0172280476
 H         -5.6176784218       -0.8136915829        0.9793890910
