80
 energy: -106.714740259808 gnorm: 0.000044024478 xtb: 6.7.1 (edcfbbe)
C           -2.69742782487146        0.67711763659126       -3.33333880285103
C           -1.30809255012391        1.05004286727027       -2.81694724404015
C           -1.38897969659036        2.14644833912569       -1.79847361248560
C           -1.39123619671499        3.47847451222089       -2.18800685818738
C           -1.52458919570207        4.49290829009683       -1.25652333760676
C           -1.64486999832443        4.18419403162647        0.09103868207277
C           -1.61803148498507        2.86521912077054        0.49782308858698
C           -1.51449564781383        1.84113829911767       -0.43980875587265
P           -1.36273432307825        0.10218591766591        0.13172553515694
C           -3.08974204935657       -0.47826191096942        0.14710812413922
C           -4.13282853865976        0.45072291092150        0.22366937432146
C           -5.43463588825229        0.01866856876878        0.37314269367292
C           -5.71486581967322       -1.33762555357324        0.44275419680950
C           -4.68085414241668       -2.26079522659872        0.36046724560030
C           -3.36803818760119       -1.85125791405159        0.21252968574288
C           -2.25823896693002       -2.84646131739073        0.06885446343553
C           -1.88807415289851       -3.03980792120258       -1.40037238544873
C           -0.80594628710015        0.18495636774495        1.81583176386905
C           -1.53070479752561        0.21813806085127        3.01364018333970
C           -0.84679545941668        0.25175076248956        4.20053001898108
C            0.57181788434167        0.22075800305670        4.23110848889179
C            1.29921812144355        0.12499236761004        3.06628702915471
C            0.62309400977671        0.02741990662003        1.85572642745320
P            1.22441931311980       -0.07201187543866        0.18303372533168
C            1.36894988043001       -1.86013601546767       -0.20151688709390
C            1.18752520524217       -2.80548436792466        0.80462015526077
C            1.33857259747878       -4.15147414141203        0.53447294672259
C            1.68023530264519       -4.56246324524622       -0.74469726284304
C            1.86921456442591       -3.62409593870341       -1.74421218458675
C            1.72009027089049       -2.26735837385831       -1.49068294895428
C            1.94424730676153       -1.26427595638128       -2.58394455057537
C            3.42382744203242       -1.15100581400315       -2.94820444527115
C            2.96703337682663        0.44836391937903        0.23285386469908
C            3.92704582483173       -0.44961502472118        0.71217157148513
C            5.25083332486765       -0.06787636759522        0.79066770687250
C            5.63435689195817        1.19821617655604        0.37659262315120
C            4.68091245361327        2.08790969251462       -0.09992162550373
C            3.34469981589103        1.73173101477543       -0.17481970238484
C            2.31414900366675        2.72746109432015       -0.61317500658609
C            1.84160629707551        3.54971980857388        0.58482633262479
H           -3.32476108450768        0.33180456973755       -2.51373516627838
H           -3.17558390804925        1.53992909246582       -3.79227710583999
H           -2.62694225193158       -0.11655098765284       -4.07401815235828
H           -0.85297961054017        0.16681488268584       -2.35138651101006
H           -0.68002138682332        1.36245133340553       -3.65502813790177
H           -1.29009461024700        3.72172960268883       -3.23683255873710
H           -1.52983040776251        5.52411593846061       -1.57828060949670
H           -1.75119679237129        4.97272400835311        0.82206384312874
H           -1.68796278398072        2.61385968682977        1.54806404680077
H           -3.91551689808974        1.50768473531526        0.16431370448413
H           -6.23481561708553        0.74213258598295        0.43669925234925
H           -6.73358024897881       -1.67656389114029        0.55706312792901
H           -4.90189710593577       -3.31803714181877        0.40899626368223
H           -1.37773750271842       -2.47878760372411        0.60840261811933
H           -2.55287052410689       -3.80460247311501        0.50139740946806
H           -1.07953942217944       -3.76052135497088       -1.49651608491374
H           -1.55840374448732       -2.09391809668842       -1.82784420745619
H           -2.74751238291654       -3.39314883706665       -1.96649750105408
H           -2.61196962952345        0.26558574335131        2.98759771374946
H           -1.38606846901995        0.32292108747512        5.13372395520565
H            1.07666843589095        0.24932385892629        5.18477416192501
H            2.38046767970922        0.07910118068182        3.08830831428352
H            0.92858110426057       -2.47323791864206        1.80189506651486
H            1.19055578839645       -4.87937612937893        1.31878499765678
H            1.79881210206123       -5.61390868617603       -0.96224706443276
H            2.12872687575660       -3.94898977529356       -2.74222858323706
H            1.37427081559599       -1.55337827489017       -3.47120785941553
H            1.58310676379345       -0.28454324737625       -2.24758709355282
H            3.56283113207422       -0.41730679921832       -3.73890659117367
H            3.80806513330780       -2.10842589325175       -3.29258146786774
H            4.00399487767931       -0.83940757992225       -2.08233745413854
H            3.62639065021329       -1.44250904954629        1.01666146696579
H            5.98789445558975       -0.76275012161634        1.16708743235202
H            6.67182846853900        1.49354716747503        0.42380975274928
H            4.98208787715964        3.07657680084002       -0.41695005868151
H            1.45272299969237        2.20334159105858       -1.04391473513581
H            2.72917075503971        3.39240059952757       -1.37379016828446
H            1.38489612255269        2.89596652005410        1.32643349656260
H            2.68144019438564        4.06320822978199        1.04823934396252
H            1.10504652001725        4.28604604191976        0.27324892303908
