80
 energy: -106.714736629387 gnorm: 0.000127663960 xtb: 6.7.1 (edcfbbe)
C           -2.51445490913220        0.74101895726607       -3.42660307022850
C           -1.11695703660609        1.01199499583056       -2.87023193476726
C           -1.13595780632208        2.15220528227973       -1.89786218166087
C           -1.01134240882058        3.46250138309069       -2.33785866046301
C           -1.08536013106030        4.52192186584459       -1.45090620000921
C           -1.27427191812451        4.28019414585081       -0.09771426898419
C           -1.37409976907082        2.98140165093992        0.35996120483414
C           -1.32916896141757        1.91482533670051       -0.53357305928143
P           -1.34252257602975        0.19405516321850        0.10918697992908
C           -3.10999506761227       -0.24492304985918        0.07479973761646
C           -4.07535440006758        0.76762869496924        0.07784589134773
C           -5.41270782668039        0.44818787413849        0.19239250999181
C           -5.80560105382161       -0.87734175275220        0.29996834772569
C           -4.84854982354927       -1.88352240550054        0.29101346989034
C           -3.50216540816715       -1.58739666158383        0.17905858489295
C           -2.47325380628263       -2.67366532610799        0.11448693213341
C           -2.07180947586518       -2.95659941685407       -1.33182794275423
C           -0.84663177212432        0.29634475573715        1.81068001418676
C           -1.61227149628701        0.42646565711753        2.97598842538565
C           -0.97489211261946        0.44408860904927        4.18872215192498
C            0.43451437836139        0.29851635754603        4.27949781929759
C            1.19661238007628        0.10666352499512        3.14980462530793
C            0.56284285117448        0.02547112664748        1.91475603713042
P            1.22146537092498       -0.16995815064073        0.27334960389788
C            1.24392620669200       -1.97356955976027       -0.06312261119780
C            0.94921855903032       -2.87508395044865        0.95592375053077
C            0.99647279795728       -4.23538627312033        0.72065433162289
C            1.34446438028384       -4.70432345745454       -0.53652599701650
C            1.64378105359432       -3.80989145980101       -1.54919726533545
C            1.60071721230355       -2.43956446370140       -1.33036361061396
C            1.94509416901229       -1.48541054417330       -2.43607080887145
C            3.44180860573210       -1.49824722748594       -2.74333529527381
C            2.99498308854139        0.22119100150421        0.38493725096360
C            3.87116672768832       -0.74186970223844        0.89723600453361
C            5.21423604531095       -0.45285158511999        1.02925928095505
C            5.70020812549651        0.78435268930582        0.63672893713307
C            4.82991842554807        1.73895358639932        0.12793103659621
C            3.47606506263454        1.47640846014662       -0.00049243015967
C            2.53629849556614        2.54363065607974       -0.47345023034614
C            2.10070187212586        3.41453838270942        0.70411106517348
H           -3.19892056005692        0.48483310747871       -2.62016005059523
H           -2.89758877677825        1.62295802362736       -3.93560980541306
H           -2.48791404448085       -0.08495279799882       -4.13411548668597
H           -0.75898553614889        0.11240886535982       -2.35393691044263
H           -0.43392936087255        1.23355981151808       -3.69414476034299
H           -0.85697423132705        3.65303737469787       -3.39109581441498
H           -0.99128250824646        5.53572253400708       -1.81185053345969
H           -1.33606292927488        5.10430547017932        0.59841884763469
H           -1.49846696562389        2.77985058271845        1.41590405132198
H           -3.76982771081681        1.80048635814387       -0.01073157272916
H           -6.15257455472467        1.23578545480803        0.19900880510490
H           -6.85210804514749       -1.12825202862550        0.38715519048208
H           -5.15730306938332       -2.91672721383882        0.36941234418720
H           -1.58400353491040       -2.35589266292408        0.67124112174871
H           -2.85946434603361       -3.58632549527351        0.57258693695242
H           -1.32207423495364       -3.74322081439855       -1.37106763505641
H           -1.65218756534577       -2.05871350432957       -1.78319479130547
H           -2.93815965790388       -3.26285330800416       -1.91460198482012
H           -2.68418204184180        0.56003190741949        2.90359341476347
H           -1.54240706501340        0.58994557444494        5.09613029987394
H            0.90185138219003        0.31658065561580        5.25238215754592
H            2.26876060004919       -0.02642921738195        3.21797677477227
H            0.68586339549934       -2.49755770738120        1.93578878574932
H            0.76228405288849       -4.92913064667162        1.51485623413678
H            1.38166066787272       -5.76702981327203       -0.72698819098137
H            1.90766456106616       -4.17957985130780       -2.53034107844505
H            1.38828147624204       -1.75175674892448       -3.33865891513405
H            1.65052543003037       -0.47193306563567       -2.13660347080230
H            3.76174983868251       -2.49198227559302       -3.04841548542526
H            4.01145056766553       -1.20910803605456       -1.86279844933012
H            3.66843174891120       -0.79980141277741       -3.54561440675313
H            3.49110515095933       -1.71186232688546        1.18621028017542
H            5.88598294974120       -1.19775087336551        1.43138402307575
H            6.75290394009408        1.00727438001068        0.72617156268717
H            5.21074457115782        2.70517787562930       -0.17216364168259
H            1.64767720076951        2.08249956163266       -0.92073136967466
H            3.01967289996547        3.16565683529748       -1.23008521851717
H            1.57602132513808        2.80782345446836        1.44048563055664
H            2.96671205463873        3.86622606828272        1.18344364442158
H            1.43255846626053        4.20261279875360        0.36609785265345
