  80
       -106.71118432
 C         -2.7200978768        0.7259931514       -3.3517758541
 C         -1.3312045451        1.0894077221       -2.8278681464
 C         -1.4093087048        2.1786079942       -1.8014184343
 C         -1.4165845999        3.5128089162       -2.1826012058
 C         -1.5469385522        4.5214063991       -1.2443673892
 C         -1.6592803512        4.2033127185        0.1028064372
 C         -1.6275000591        2.8828934121        0.5017833436
 C         -1.5282414046        1.8634807455       -0.4430977731
 P         -1.3622098963        0.1234048200        0.1057388997
 C         -3.0832859269       -0.4731946524        0.1247047551
 C         -4.1374655535        0.4459201386        0.1823222495
 C         -5.4325802173        0.0028637843        0.3506441216
 C         -5.6972276023       -1.3547464058        0.4593374851
 C         -4.6533046860       -2.2680918452        0.3930203946
 C         -3.3466804528       -1.8480045157        0.2239256635
 C         -2.2275394687       -2.8334500979        0.0908072106
 C         -1.8581402403       -3.0411220711       -1.3768496165
 C         -0.8073831768        0.1970388430        1.7955221529
 C         -1.5380009170        0.2449147098        2.9883597169
 C         -0.8585354527        0.2605113306        4.1800133413
 C          0.5548351471        0.1995741481        4.2172801321
 C          1.2866823386        0.0942971897        3.0529050669
 C          0.6138683613        0.0179082064        1.8418936986
 P          1.2215072610       -0.0895217140        0.1668447356
 C          1.3622078260       -1.8757986856       -0.2015463454
 C          1.2028804166       -2.8170833336        0.8143094840
 C          1.3828813474       -4.1608023997        0.5552381221
 C          1.7371044796       -4.5762755757       -0.7200149094
 C          1.9081354744       -3.6418838369       -1.7276520496
 C          1.7283187765       -2.2875397042       -1.4870717791
 C          1.9289484207       -1.2886065829       -2.5885784035
 C          3.4045343768       -1.1474836441       -2.9589923865
 C          2.9625939887        0.4336750270        0.2371019912
 C          3.9209297157       -0.4656765020        0.7195888947
 C          5.2432012142       -0.0832655418        0.8066500150
 C          5.6297270147        1.1837514448        0.3962216472
 C          4.6794290795        2.0722671904       -0.0888163187
 C          3.3442503970        1.7152420556       -0.1739085460
 C          2.3167936975        2.7097443959       -0.6224472957
 C          1.8308301772        3.5303445065        0.5710929146
 H         -3.3517308391        0.3777388396       -2.5366659770
 H         -3.1930482987        1.5939285010       -3.8067513771
 H         -2.6502693007       -0.0630824815       -4.0974535019
 H         -0.8816438787        0.2002533478       -2.3674766870
 H         -0.6989417012        1.4048434158       -3.6617041628
 H         -1.3220423610        3.7618311373       -3.2306977878
 H         -1.5562896553        5.5547913969       -1.5587693614
 H         -1.7637150321        4.9878794266        0.8384211594
 H         -1.6930167368        2.6261267036        1.5508357410
 H         -3.9322950600        1.5034164468        0.0953562537
 H         -6.2408285369        0.7184804391        0.4003442690
 H         -6.7111237273       -1.7015440376        0.5913928922
 H         -4.8614502740       -3.3262842493        0.4697735563
 H         -1.3496223918       -2.4489797593        0.6229969740
 H         -2.5107419875       -3.7889538046        0.5364446423
 H         -1.0467938397       -3.7595664475       -1.4653106062
 H         -1.5324477452       -2.0983616217       -1.8150218153
 H         -2.7168455622       -3.4044421258       -1.9380064982
 H         -2.6179430833        0.3123594214        2.9574462649
 H         -1.4021970226        0.3397828117        5.1101706586
 H          1.0574951301        0.2154872494        5.1724117223
 H          2.3667130174        0.0317143670        3.0795064797
 H          0.9365417124       -2.4833672803        1.8089869225
 H          1.2492971352       -4.8850697024        1.3455375426
 H          1.8790210038       -5.6266079985       -0.9277703355
 H          2.1758199914       -3.9702790950       -2.7223297027
 H          1.3614039785       -1.5945660599       -3.4717710385
 H          1.5489191330       -0.3138361480       -2.2573812993
 H          3.5258936984       -0.4158024631       -3.7545238049
 H          3.8068167810       -2.0990122156       -3.2991061128
 H          3.9813780858       -0.8193039698       -2.0969282820
 H          3.6190368902       -1.4589784052        1.0211150268
 H          5.9782337715       -0.7785703407        1.1863759133
 H          6.6667374968        1.4788798377        0.4513369225
 H          4.9819528925        3.0607608692       -0.4046731717
 H          1.4606235810        2.1838200265       -1.0619391755
 H          2.7386194308        3.3751010266       -1.3789062320
 H          1.3650142184        2.8761201276        1.3065515134
 H          2.6657625482        4.0423256643        1.0448150092
 H          1.0985587273        4.2680198790        0.2524978012
