80
 energy: -106.810625949417 gnorm: 0.000030237579 xtb: 6.7.1 (edcfbbe)
C           -2.21856646998137        0.56266603044583       -3.43717154118376
C           -0.85896083530610        1.05482229966449       -2.94375485191264
C           -1.02694989338802        2.11460525710883       -1.89662009337474
C           -0.92121636729444        3.45872050528450       -2.22710944869372
C           -1.11682801434492        4.44427074989171       -1.27628688409731
C           -1.42069879746371        4.09321772038798        0.02822462920516
C           -1.52256135521360        2.75886973138506        0.37484462922966
C           -1.33180059646272        1.76419567668846       -0.57884494812630
P           -1.44339828026516       -0.01725377170724       -0.15667188889733
C           -3.25652723923523       -0.20280877114757        0.12050485829052
C           -4.15996406089049        0.84271016065059       -0.03535689833763
C           -5.51560320213270        0.63775275345508        0.14986468423024
C           -5.98502206405289       -0.61993096147348        0.48391641747266
C           -5.09435493707697       -1.67144992511587        0.61442168957203
C           -3.73331737149164       -1.48284846004978        0.42717039225221
C           -2.79257606234400       -2.65025812255698        0.50078200152557
C           -2.52618714987871       -3.20788466277676       -0.89681692853302
C           -0.86735642904355        0.09651195131331        1.57490326741794
C           -1.62092005937186        0.12669820915484        2.73509210892546
C           -0.97362030551155        0.23744324222428        3.95773412093249
C            0.40763060937410        0.31824422405736        4.01726489722730
C            1.16912658694341        0.26013843950007        2.85845761435832
C            0.53029110380348        0.12002145022979        1.63870462745916
P            1.26396026091011        0.02370915539517       -0.03114168667103
C            1.29713619708643       -1.79530005479377       -0.27036116164300
C            0.84351055217467       -2.68464570963445        0.69934402919315
C            0.81236485579899       -4.04450068335271        0.45325442560535
C            1.22519458992549       -4.53209531259266       -0.77457206464697
C            1.68471339153591       -3.65511803902901       -1.73930924781179
C            1.73539442706461       -2.28729043269648       -1.50362781784515
C            2.29905294525211       -1.38015183298214       -2.55872052564752
C            3.81842326744397       -1.51754407663169       -2.65297615574379
C            3.04197531000347        0.29001360989344        0.37623669659045
C            3.80024032690701       -0.70897761385089        0.98025425386076
C            5.13637258059250       -0.50329612923256        1.26794177676606
C            5.73055802037547        0.70533673043448        0.94539451934020
C            4.98285034419087        1.70034750715185        0.34233043921144
C            3.63875574960647        1.50966886276800        0.04911375002976
C            2.83383818140223        2.62122931301732       -0.55725622136358
C            2.07482863851657        3.37902774234735        0.53018989357969
H           -2.79005390685065        0.14573491986890       -2.60800143423181
H           -2.78919767523580        1.38371243344404       -3.86689934239142
H           -2.09332896581691       -0.20894386944089       -4.19345997172264
H           -0.31181854850951        0.20909489570243       -2.51469123521798
H           -0.28430159722545        1.44860242752502       -3.78485596121048
H           -0.68308124580979        3.73554679439675       -3.24500146130931
H           -1.03244950799313        5.48570960265427       -1.55209063989075
H           -1.57499193300529        4.85750294433002        0.77636452000038
H           -1.75718626227510        2.48688735105881        1.39507131117120
H           -3.80399818495912        1.82737218800160       -0.30258583835688
H           -6.20374447144761        1.46254368928200        0.03290981973487
H           -7.04210688567481       -0.78429714386313        0.63446078775674
H           -5.46139035803717       -2.65819617770501        0.86195807916169
H           -1.84280321292676       -2.33653018190310        0.94269251020479
H           -3.21894298922277       -3.43363039828658        1.13146079527503
H           -1.84788398686031       -4.05625193152574       -0.84428259907524
H           -2.06767934533838       -2.44248143039759       -1.52159303548196
H           -3.45591519841572       -3.52542147006535       -1.36429651401084
H           -2.70057307203326        0.07480062381270        2.68884059869118
H           -1.55421074031001        0.27112636089287        4.86862436594739
H            0.89917665932907        0.41942453241249        4.97433279049705
H            2.24779097969416        0.31420946053518        2.91073711852549
H            0.52512513519202       -2.31431228747512        1.66414080216009
H            0.46191982607735       -4.72121886837949        1.21950359647619
H            1.19240171664329       -5.59277908141282       -0.97780065550399
H            2.00962224684948       -4.03556141437280       -2.69784455100251
H            1.85404388472648       -1.62143073337295       -3.52768564286263
H            2.05298514639245       -0.34076525805239       -2.31690681591443
H            4.09629973923555       -2.53962234030881       -2.90055661560327
H            4.28147103401858       -1.25599845498233       -1.70392109248989
H            4.21034895367374       -0.85548457676335       -3.42178833798243
H            3.33822090935366       -1.65633693164985        1.22345042026050
H            5.71374613856822       -1.28571618518859        1.73928570409333
H            6.77571869333309        0.87100856157656        1.16306012244210
H            5.44914538395759        2.64313190694734        0.09127924118229
H            2.10975438412258        2.21274489268999       -1.26879726610831
H            3.49257398341154        3.30893490418489       -1.09165018091403
H            1.38345001775050        2.70778663204816        1.03862225562983
H            2.76590056421834        3.78477359041454        1.26646287958453
H            1.50084328930505        4.19437852051182        0.09661123842057
