80
 energy: -106.799817936274 gnorm: 0.000034287728 xtb: 6.7.1 (edcfbbe)
C           -1.85551565988203        4.01731850818593       -1.97507553404694
C           -1.88342473254400        2.64964988044986       -1.30857263703467
C           -2.01429542379100        2.65099567868901        0.18849970878390
C           -2.26471854606961        3.79984639702929        0.92205611565926
C           -2.37419232940408        3.75614057909234        2.30200180297986
C           -2.23181716929358        2.55414432950035        2.96977730208490
C           -1.98040627413509        1.39782437651015        2.25364036517487
C           -1.87707814459705        1.43228580307474        0.86903734380496
P           -1.47181904251150       -0.04141329724772       -0.15147981933214
C           -3.15991279158984       -0.68777194840033       -0.48196977629743
C           -4.30810260808735       -0.04323831663710       -0.03051635792172
C           -5.56130533919966       -0.54466768808758       -0.32819738387665
C           -5.68095105449764       -1.69213623514818       -1.09320994243659
C           -4.54421211723824       -2.32707348848932       -1.55869846330610
C           -3.27650850124621       -1.84098817158848       -1.26628861736544
C           -2.07134159021687       -2.57024346814381       -1.78628508257110
C           -1.85324742788098       -3.89637269783393       -1.05868563933560
C           -0.94685338964789       -1.25146057210871        1.11023688809910
C           -1.75530363981888       -1.86528356880430        2.05453097788252
C           -1.20259179876064       -2.79014797895783        2.92640843638693
C            0.14228319417350       -3.11410604302259        2.83938153987461
C            0.94925395836019       -2.52595926068759        1.87889979407718
C            0.41199787703295       -1.57727537098813        1.02065296529794
P            1.20764590536564       -0.86181128421607       -0.45616859464339
C            2.88167871221020       -1.65269223667313       -0.39105668712861
C            3.05319358635081       -2.55066323007348       -1.44587930501444
C            4.21701193368154       -3.27611338075145       -1.60146385532713
C            5.24355647346372       -3.10679522860256       -0.68829451931852
C            5.08423467682483       -2.22247247613338        0.36161150759191
C            3.91653027606661       -1.48574531448397        0.53227531425456
C            3.83897707784501       -0.54221097858498        1.69749561561274
C            4.61468735477189        0.74416689425281        1.41260886045979
C            1.49674260554166        0.88400596937244        0.02761238471242
C            1.10741606401805        1.39847864698634        1.25986320481311
C            1.21665138407696        2.74979020712833        1.52862120895838
C            1.70250689432019        3.60716686335895        0.55833277986096
C            2.09231870890756        3.10333118689935       -0.66994609341011
C            1.99592172868772        1.74814603246012       -0.95294451158413
C            2.39790900141711        1.23223382459156       -2.30499763635024
C            1.19828521018528        1.17923355248519       -3.25028628895652
H           -2.79281527937973        4.54889558039756       -1.82616697157107
H           -1.03951192014190        4.61796654848270       -1.57867335398693
H           -1.70367583419931        3.89857471616596       -3.04589378101946
H           -2.70712175015308        2.05805549154763       -1.72626879503379
H           -0.95608503678522        2.12013895550548       -1.55259337361819
H           -2.37489483018103        4.74833543732552        0.42022562094544
H           -2.56786311143217        4.66437533832306        2.85446443288992
H           -2.31314376234327        2.51380040634074        4.04663955037974
H           -1.85855311248065        0.46439216845455        2.78419990395711
H           -4.22066247303322        0.85661626324463        0.56178349127127
H           -6.44339373200641       -0.03741950788617        0.03519824220293
H           -6.65776405847577       -2.08727979547983       -1.33151295486576
H           -4.63898351514277       -3.21471758859540       -2.16875393847719
H           -2.20128026864580       -2.76616928928083       -2.85415697833809
H           -1.18014667706107       -1.94490767291354       -1.66285735481235
H           -0.97072133858866       -4.39833420943569       -1.44855641918984
H           -2.71165675224035       -4.55188804550903       -1.18855158383414
H           -1.70900498874633       -3.72764260792474        0.00603381184296
H           -2.81358851111683       -1.64130503440539        2.09145088475984
H           -1.82671711397386       -3.27166166575831        3.66570479614002
H            0.56217747973815       -3.84623846083643        3.51432617006590
H            1.98764343201372       -2.81383031413317        1.79443229217323
H            2.24190848504726       -2.67191851401767       -2.15373827242588
H            4.32439965510867       -3.96660244193812       -2.42521473981134
H            6.16320305365204       -3.66440279238793       -0.79080647647301
H            5.88336560984714       -2.10022092160696        1.08037028373189
H            2.80060675324068       -0.29958824357720        1.91606275992532
H            4.26742680796361       -1.02573237952338        2.58018740952540
H            5.66351863923239        0.52405953968465        1.22502319743277
H            4.54662107343077        1.42179029434185        2.26074206819805
H            4.20759071574166        1.24754108069482        0.53877165813065
H            0.72570754751803        0.73706618340548        2.02603360856228
H            0.91038095326978        3.13132974920629        2.49160136296223
H            1.78037929624355        4.66584670492899        0.75855601894292
H            2.47682729841104        3.77283072469367       -1.42743380452201
H            2.81925538092913        0.22757657974665       -2.20377476042031
H            3.16757480498210        1.87997936014484       -2.73191367568164
H            0.77964183595736        2.17388146855721       -3.38925099369752
H            1.49740603268947        0.78894168394336       -4.22027286384179
H            0.42673816819993        0.52974571572867       -2.83894484353211
