  69
       -105.95584422
 C         -5.7025713305       -4.6763488898        0.2860175853
 C         -4.7151861504       -5.4640931905        0.8539885464
 C         -3.3834634428       -5.1202893507        0.7128309853
 C         -3.0175404828       -3.9792975507        0.0025990867
 C         -1.6028792550       -3.6008978390       -0.1368147105
 C         -0.6128821911       -4.5613037633       -0.3480939288
 C          0.7160027267       -4.1901095459       -0.4681896160
 C          1.0851546907       -2.8618794873       -0.3802288652
 C          0.1066127199       -1.8904224115       -0.1742779768
 C          0.4602144536       -0.4751330799       -0.0807844249
 N          1.7321811738       -0.1300309377       -0.0596758743
 C          2.0353244857        1.2013941939        0.0467824137
 C          3.4072796920        1.6062897619        0.0902077283
 C          3.7534410704        2.9633859910        0.1953912853
 C          5.0794662174        3.3316603640        0.2376198529
 C          6.0828200520        2.3760109897        0.1735602511
 C          5.7599639341        1.0197930868        0.0687362635
 C          6.8183610453        0.0016806258       -0.0009422084
 C          6.6930645685       -1.2004316045        0.6931133438
 C          7.6891962965       -2.1564249345        0.6303251094
 C          8.8243817662       -1.9312972843       -0.1310821076
 C          8.9579329825       -0.7416713018       -0.8280438415
 C          7.9654283288        0.2180984247       -0.7619833856
 C          4.4261992741        0.6473525165        0.0300052915
 N          1.0571327615        2.0894918453        0.1154992936
 C         -0.2112090360        1.7264752904        0.0777623939
 C         -1.2777569694        2.6800658354        0.1466983555
 C         -1.0264769197        4.0487593944        0.3274514370
 C         -2.0807425100        4.9326580323        0.3975022408
 C         -3.3902311477        4.4886178276        0.2846575843
 C         -3.6617137084        3.1300462602        0.0969953605
 C         -5.0424079048        2.6428054666       -0.0384263952
 C         -5.9895251061        3.3713718037       -0.7552828263
 C         -7.2826972169        2.9025226568       -0.8927567705
 C         -7.6534728654        1.6994210437       -0.3150890673
 C         -6.7211153525        0.9670808445        0.4014334160
 C         -5.4273141619        1.4332802573        0.5381770041
 C         -2.6022215058        2.2404334528        0.0328736397
 N         -0.5269248345        0.3996917023       -0.0228211103
 C         -1.2281657518       -2.2667487294       -0.0538862141
 C         -4.0193016203       -3.1935726031       -0.5641469686
 C         -5.3499450372       -3.5407804128       -0.4242608479
 H         -6.7422472771       -4.9465006882        0.3970744505
 H         -4.9844055859       -6.3491214625        1.4119488834
 H         -2.6198933884       -5.7285513081        1.1753848551
 H         -0.8895282587       -5.6014670513       -0.4375757937
 H          1.4693603450       -4.9461376069       -0.6349309494
 H          2.1167220527       -2.5599799845       -0.4731122895
 H          2.9655809603        3.6992127429        0.2419390312
 H          5.3437827386        4.3757740039        0.3252545786
 H          7.1183546834        2.6761554373        0.2284044182
 H          5.8171343835       -1.3737985605        1.3008832743
 H          7.5820084842       -3.0810387717        1.1789171501
 H          9.6014277257       -2.6796463994       -0.1813257387
 H          9.8392094909       -0.5628016682       -1.4268823104
 H          8.0674819999        1.1369202210       -1.3207599705
 H          4.1474069606       -0.3904952706       -0.0715435952
 H         -0.0051882196        4.3861476878        0.4129933309
 H         -1.8878274304        5.9854398033        0.5462696460
 H         -4.2056111644        5.1916640838        0.3638961540
 H         -5.7025433600        4.3005012190       -1.2254903397
 H         -8.0045647242        3.4761592803       -1.4559188045
 H         -8.6643307051        1.3347112127       -0.4227968738
 H         -7.0042576111        0.0295616298        0.8580846659
 H         -4.7115171661        0.8662041714        1.1148623422
 H         -2.7771891193        1.1887553465       -0.1349813575
 H         -1.9660087420       -1.5008309599        0.1293521763
 H         -3.7512856476       -2.3161610522       -1.1341673200
 H         -6.1146790956       -2.9226803561       -0.8721394580
