  69
       -105.95584422
 C         -5.7025713305       -4.6763488898        0.2860175853
 C         -4.7151861504       -5.4640931905        0.8539885464
 C         -3.3834634428       -5.1202893507        0.7128309853
 C         -3.0175404828       -3.9792975507        0.0025990867
 C         -1.6028792550       -3.6008978390       -0.1368147105
 C         -0.6128821911       -4.5613037633       -0.3480939288
 C          0.7160027267       -4.1901095459       -0.4681896160
 C          1.0851546907       -2.8618794873       -0.3802288652
 C          0.1066127199       -1.8904224115       -0.1742779768
 C          0.4602144536       -0.4751330799       -0.0807844249
 N          1.7321811738       -0.1300309377       -0.0596758743
 C          2.0353244857        1.2013941939        0.0467824137
 C          3.4072796920        1.6062897619        0.0902077283
 C          3.7534410704        2.9633859910        0.1953912853
 C          5.0794662174        3.3316603640        0.2376198529
 C          6.0828200520        2.3760109897        0.1735602511
 C          5.7599639341        1.0197930868        0.0687362635
 C          6.8183610453        0.0016806258       -0.0009422084
 C          6.6930645685       -1.2004316045        0.6931133438
 C          7.6891962965       -2.1564249345        0.6303251094
 C          8.8243817662       -1.9312972843       -0.1310821076
 C          8.9579329825       -0.7416713018       -0.8280438415
 C          7.9654283288        0.2180984247       -0.7619833856
 C          4.4261992741        0.6473525165        0.0300052915
 N          1.0571327615        2.0894918453        0.1154992936
 C         -0.2112090360        1.7264752904        0.0777623939
 C         -1.2777569694        2.6800658354        0.1466983555
 C         -1.0264769197        4.0487593944        0.3274514370
 C         -2.0807425100        4.9326580323        0.3975022408
 C         -3.3902311477        4.4886178276        0.2846575843
 C         -3.6617137084        3.1300462602        0.0969953605
 C         -5.0424079048        2.6428054666       -0.0384263952
 C         -5.9895251061        3.3713718037       -0.7552828263
 C         -7.2826972169        2.9025226568       -0.8927567705
 C         -7.6534728654        1.6994210437       -0.3150890673
 C         -6.7211153525        0.9670808445        0.4014334160
 C         -5.4273141619        1.4332802573        0.5381770041
 C         -2.6022215058        2.2404334528        0.0328736397
 N         -0.5269248345        0.3996917023       -0.0228211103
 C         -1.2281657518       -2.2667487294       -0.0538862141
 C         -4.0193016203       -3.1935726031       -0.5641469686
 C         -5.3499450372       -3.5407804128       -0.4242608479
 H         -6.7422472771       -4.9465006882        0.3970744505
 H         -4.9844055859       -6.3491214625        1.4119488834
 H         -2.6198933884       -5.7285513081        1.1753848551
 H         -0.8895282587       -5.6014670513       -0.4375757937
 H          1.4693603450       -4.9461376069       -0.6349309494
 H          2.1167220527       -2.5599799845       -0.4731122895
 H          2.9655809603        3.6992127429        0.2419390312
 H          5.3437827386        4.3757740039        0.3252545786
 H          7.1183546834        2.6761554373        0.2284044182
 H          5.8171343835       -1.3737985605        1.3008832743
 H          7.5820084842       -3.0810387717        1.1789171501
 H          9.6014277257       -2.6796463994       -0.1813257387
 H          9.8392094909       -0.5628016682       -1.4268823104
 H          8.0674819999        1.1369202210       -1.3207599705
 H          4.1474069606       -0.3904952706       -0.0715435952
 H         -0.0051882196        4.3861476878        0.4129933309
 H         -1.8878274304        5.9854398033        0.5462696460
 H         -4.2056111644        5.1916640838        0.3638961540
 H         -5.7025433600        4.3005012190       -1.2254903397
 H         -8.0045647242        3.4761592803       -1.4559188045
 H         -8.6643307051        1.3347112127       -0.4227968738
 H         -7.0042576111        0.0295616298        0.8580846659
 H         -4.7115171661        0.8662041714        1.1148623422
 H         -2.7771891193        1.1887553465       -0.1349813575
 H         -1.9660087420       -1.5008309599        0.1293521763
 H         -3.7512856476       -2.3161610522       -1.1341673200
 H         -6.1146790956       -2.9226803561       -0.8721394580
  69
       -105.95582584
 C         -5.7752522214       -4.5763804861        0.1412877341
 C         -4.8417345776       -5.3786302929        0.7764637647
 C         -3.4967268850       -5.0652516316        0.7139479672
 C         -3.0612644736       -3.9409478869        0.0154941586
 C         -1.6334389451       -3.5945871278       -0.0438648360
 C         -0.6532129625       -4.5830737702       -0.1729744746
 C          0.6893862495       -4.2367383223       -0.2212317035
 C          1.0829512977       -2.9186575983       -0.1448590113
 C          0.1146083206       -1.9110089197       -0.0197562718
 C          0.4750055363       -0.5266234634        0.0534762952
 N          1.7315676675       -0.1240957430        0.0467215319
 C          2.0478311535        1.1594045197        0.1188685044
 C          3.4150487590        1.5820832002        0.1082777193
 C          3.7421682732        2.9454388974        0.1823985785
 C          5.0625608705        3.3375832701        0.1675675240
 C          6.0779874152        2.3980124238        0.0769049966
 C          5.7741555149        1.0344981560        0.0022943699
 C          6.8468022239        0.0343343781       -0.0999681649
 C          7.9622048683        0.2665012594       -0.9026332405
 C          8.9694698505       -0.6750955112       -0.9981140185
 C          8.8823392285       -1.8628751037       -0.2907649074
 C          7.7787516194       -2.1040908163        0.5110804212
 C          6.7682688523       -1.1659035150        0.6042652948
 C          4.4472908559        0.6384496489        0.0220302774
 N          1.0539583899        2.0979036223        0.2069863522
 C         -0.1950286896        1.6779600791        0.1926593849
 C         -1.2842677714        2.6503646784        0.2586717708
 C         -1.0358884763        3.9985871088        0.5093191398
 C         -2.0953116576        4.8833446550        0.5712574121
 C         -3.3945994661        4.4431032696        0.3804059119
 C         -3.6580607135        3.0973503995        0.1227005384
 C         -5.0285932216        2.6096864334       -0.0955781180
 C         -5.9448186124        3.3597330434       -0.8290241919
 C         -7.2248858132        2.8861318272       -1.0498987614
 C         -7.6115795880        1.6579460841       -0.5402485316
 C         -6.7098924838        0.9053477848        0.1937530548
 C         -5.4290583513        1.3758884805        0.4138159106
 C         -2.5911745801        2.2113249995        0.0668084392
 N         -0.5262417493        0.4020504200        0.1197112570
 C         -1.2379483297       -2.2696818861        0.0312081701
 C         -4.0102819146       -3.1410430863       -0.6195411308
 C         -5.3542704304       -3.4568012305       -0.5574869446
 H         -6.8255927918       -4.8231349855        0.1903112954
 H         -5.1647124496       -6.2513119131        1.3255835801
 H         -2.7767257950       -5.6847284023        1.2283088420
 H         -0.9450311482       -5.6189092018       -0.2581973847
 H          1.4345515677       -5.0124483201       -0.3251097742
 H          2.1251107074       -2.6417319730       -0.1831141810
 H          2.9432911093        3.6674591501        0.2495200038
 H          5.3120376431        4.3871222345        0.2299422675
 H          7.1096990599        2.7155636870        0.0866007680
 H          8.0277343036        1.1831084883       -1.4703536620
 H          9.8256913663       -0.4836973797       -1.6284986105
 H          9.6707001170       -2.5972695460       -0.3643409927
 H          7.7075513044       -3.0273515378        1.0675762195
 H          5.9178981546       -1.3519279359        1.2436683768
 H          4.1836069533       -0.4054242580       -0.0556819333
 H         -0.0199269555        4.3297051942        0.6572003650
 H         -1.9097133081        5.9282025662        0.7728849106
 H         -4.2139122815        5.1433642278        0.4498106015
 H         -5.6438662652        4.3089907674       -1.2475751626
 H         -7.9230968112        3.4758155578       -1.6258868929
 H         -8.6114965580        1.2891627655       -0.7146219154
 H         -7.0051971163       -0.0522525165        0.5975048372
 H         -4.7375972185        0.7908403741        1.0021850283
 H         -2.7572846504        1.1676285518       -0.1511607161
 H         -1.9680804146       -1.4849708873        0.1572436168
 H         -3.6885094599       -2.2768855822       -1.1818848160
 H         -6.0761539631       -2.8280063354       -1.0586795053
  69
       -105.95571641
 C         -5.6930590863       -4.7348424690        0.0583356390
 C         -4.7545015252       -5.4800784030        0.7522332420
 C         -3.4197911546       -5.1208293376        0.7214830956
 C         -3.0020270083       -4.0072208338       -0.0035375736
 C         -1.5839007109       -3.6179427782       -0.0350535013
 C         -0.5745242117       -4.5778869183       -0.1168744582
 C          0.7575578762       -4.2004100783       -0.1451123937
 C          1.1096630075       -2.8659508369       -0.0945335653
 C          0.1123162645       -1.8947017379       -0.0159679698
 C          0.4557899601       -0.4745417114        0.0271323964
 N          1.7281080158       -0.1266826472        0.0216196895
 C          2.0296548356        1.2085834970        0.0547344534
 C          3.4020262373        1.6153597155        0.0301757350
 C          3.7507845697        2.9755731712        0.0311043761
 C          5.0774780083        3.3429619749       -0.0008727929
 C          6.0784849105        2.3831150672       -0.0300758766
 C          5.7527888345        1.0236312071       -0.0308889301
 C          6.8074155149       -0.0004423451       -0.0611495964
 C          6.6646921660       -1.1415044548       -0.8486331874
 C          7.6555251723       -2.1045138767       -0.8784875864
 C          8.8030364695       -1.9476251345       -0.1183765693
 C          8.9544704008       -0.8188202093        0.6700265998
 C          7.9671057618        0.1482491349        0.6969238038
 C          4.4184121223        0.6526578708       -0.0022627251
 N          1.0511193706        2.0963173107        0.0927702238
 C         -0.2180130442        1.7304487629        0.0928027940
 C         -1.2809064326        2.6891432596        0.1275431159
 C         -1.0190408870        4.0650928793        0.2189058573
 C         -2.0660697669        4.9593791450        0.2512594640
 C         -3.3797882530        4.5183285223        0.1868462482
 C         -3.6621538881        3.1524849631        0.0905814412
 C         -5.0484559049        2.6697887533        0.0058861737
 C         -5.9965350429        3.3549351359       -0.7514706160
 C         -7.2953246159        2.8904683684       -0.8420961805
 C         -7.6708139465        1.7357096157       -0.1757992807
 C         -6.7376592767        1.0472447796        0.5819918803
 C         -5.4379430976        1.5086045623        0.6715043014
 C         -2.6098856281        2.2522975809        0.0663461697
 N         -0.5323445536        0.3995523931        0.0609296905
 C         -1.2257072709       -2.2775419622        0.0152976863
 C         -3.9552595678       -3.2631290210       -0.6959214270
 C         -5.2889627866       -3.6253569226       -0.6656778565
 H         -6.7349911677       -5.0176851819        0.0817021262
 H         -5.0647183886       -6.3437085424        1.3221660958
 H         -2.6962247030       -5.6951004588        1.2812632402
 H         -0.8373776981       -5.6236055329       -0.1785491049
 H          1.5265610650       -4.9561798986       -0.2113312105
 H          2.1433751869       -2.5586119200       -0.1162519596
 H          2.9649818141        3.7146378756        0.0546086245
 H          5.3440934358        4.3901945621       -0.0079090189
 H          7.1140555558        2.6846566048       -0.0764935327
 H          5.7790156326       -1.2603197994       -1.4554887401
 H          7.5344093804       -2.9810606500       -1.4983260742
 H          9.5758097697       -2.7016853346       -0.1402563182
 H          9.8456037160       -0.6935144986        1.2679810936
 H          8.0832031665        1.0183969732        1.3266053319
 H          4.1376030773       -0.3893641939        0.0205836851
 H          0.0056968520        4.3996605394        0.2657524150
 H         -1.8642046582        6.0180402376        0.3299953874
 H         -4.1898418190        5.2304162017        0.2332736582
 H         -5.7056841690        4.2449644538       -1.2897398849
 H         -8.0179795317        3.4294322929       -1.4376183257
 H         -8.6860208542        1.3742382861       -0.2468005258
 H         -7.0246628498        0.1469226108        1.1061506159
 H         -4.7201962146        0.9765619282        1.2783529150
 H         -2.7951058360        1.1933147023       -0.0291627434
 H         -1.9808734300       -1.5110332268        0.0985724185
 H         -3.6449929640       -2.4077410960       -1.2778574673
 H         -6.0156677367       -3.0405279271       -1.2109575650
  69
       -105.95552908
 C         -5.6568735169       -4.7893723232        0.1847697523
 C         -5.3271745927       -3.6193805232       -0.4789142985
 C         -4.0039119505       -3.2404233024       -0.6040483752
 C         -2.9867172921       -4.0282135990       -0.0690758352
 C         -1.5793339989       -3.6215414627       -0.2017413734
 C         -0.5801002080       -4.5598306859       -0.4624185765
 C          0.7420995219       -4.1671652983       -0.5847112951
 C          1.0940611175       -2.8382052602       -0.4513546658
 C          0.1061877252       -1.8885462579       -0.1948991651
 C          0.4497086505       -0.4727227569       -0.0653951634
 N          1.7214881168       -0.1275359286       -0.0384780013
 C          2.0246478990        1.2043037415        0.0695140874
 C          3.3967816947        1.6095416843        0.0979714389
 C          3.7456158020        2.9675874281        0.1784422537
 C          5.0725905501        3.3344330560        0.1991927520
 C          6.0741248481        2.3764621209        0.1401004634
 C          5.7484776871        1.0191047532        0.0633117874
 C          6.8035832447       -0.0030083709        0.0022899312
 C          7.9431342503        0.1942012318       -0.7749636384
 C          8.9313253761       -0.7705822044       -0.8328514708
 C          8.8009402373       -1.9458738897       -0.1114144828
 C          7.6734892884       -2.1514988077        0.6668262776
 C          6.6816580791       -1.1905965850        0.7215153729
 C          4.4138824850        0.6483605143        0.0440501023
 N          1.0451327298        2.0884249285        0.1481816858
 C         -0.2234849101        1.7247826451        0.1201246929
 C         -1.2842459205        2.6846372446        0.1836180787
 C         -1.0171145108        4.0550766063        0.3276008989
 C         -2.0598614614        4.9534561702        0.3772921201
 C         -3.3748615494        4.5213370782        0.2846882960
 C         -3.6623338088        3.1611481018        0.1388985781
 C         -5.0512346418        2.6901151357        0.0334387383
 C         -5.3863829011        1.6705193835       -0.8559857395
 C         -6.6906853639        1.2255160397       -0.9586465902
 C         -7.6827342690        1.7878227630       -0.1722674193
 C         -7.3611261115        2.8001582411        0.7166617646
 C         -6.0576826022        3.2493249380        0.8179739399
 C         -2.6143677609        2.2566596219        0.0924169989
 N         -0.5396187105        0.3975297972        0.0090878002
 C         -1.2217526665       -2.2861598813       -0.0702335153
 C         -3.3296271617       -5.2029341054        0.5961463461
 C         -4.6541159989       -5.5786839029        0.7225872433
 H         -6.6909295135       -5.0845955570        0.2831334510
 H         -6.1051420463       -3.0000828469       -0.9010817485
 H         -3.7521709655       -2.3358814001       -1.1377453255
 H         -0.8452695417       -5.5991050823       -0.5891615117
 H          1.5029078849       -4.9056059052       -0.7914352831
 H          2.1198596859       -2.5185902811       -0.5488264512
 H          2.9594096966        3.7053878206        0.2215251151
 H          5.3391666602        4.3795538350        0.2655408980
 H          7.1105632055        2.6761916283        0.1773738493
 H          8.0428300347        1.1017264062       -1.3521996639
 H          9.8065809833       -0.6071527850       -1.4447361417
 H          9.5742805966       -2.6984295822       -0.1557469449
 H          7.5687549452       -3.0648562724        1.2344784477
 H          5.8116437380       -1.3488222956        1.3418328177
 H          4.1326294900       -0.3907354783       -0.0364669356
 H          0.0086238088        4.3823968123        0.3978332113
 H         -1.8534003672        6.0087133816        0.4844793032
 H         -4.1805336849        5.2397015054        0.3011113151
 H         -4.6202666164        1.2416094308       -1.4850755900
 H         -6.9367751276        0.4391145835       -1.6576251019
 H         -8.7017611553        1.4390911611       -0.2519278471
 H         -8.1302418957        3.2398384541        1.3350307745
 H         -5.8108115975        4.0271351482        1.5256880352
 H         -2.8055678947        1.1980948922        0.0043968802
 H         -1.9673204053       -1.5386463416        0.1531322809
 H         -2.5539867496       -5.8132608298        1.0354085632
 H         -4.9057592612       -6.4901734195        1.2449863894
  69
       -105.95531377
 C         -5.6048675230       -4.9332620526        0.1655019630
 C         -5.1159915775       -3.9025538982        0.9512349453
 C         -3.8052171815       -3.4862993239        0.8152769372
 C         -2.9577733617       -4.0979058201       -0.1069078097
 C         -1.5590227963       -3.6633702185       -0.2365345184
 C         -0.5356430757       -4.6010387509       -0.4073197537
 C          0.7833559430       -4.1873737740       -0.5126552548
 C          1.1072379156       -2.8498391143       -0.4478761626
 C          0.0950843787       -1.8926769624       -0.2808283613
 C          0.4162490707       -0.4976874251       -0.1970052132
 N          1.7221331226       -0.1095795436       -0.1914568111
 C          1.9923100600        1.1801548006       -0.0708050474
 C          3.3884695842        1.5971103752       -0.0228329379
 C          3.7200543970        2.9517326064        0.0322340511
 C          5.0469726054        3.3276453994        0.0905904107
 C          6.0484530284        2.3709728817        0.0980567401
 C          5.7334405491        1.0123987864        0.0458718535
 C          6.7931349648       -0.0077369007        0.0635283522
 C          7.9664778002        0.1710059027       -0.6653713017
 C          8.9609842668       -0.7891747932       -0.6435311286
 C          8.8018923756       -1.9400658514        0.1101811541
 C          7.6396641771       -2.1271062890        0.8398410840
 C          6.6415435702       -1.1710765948        0.8149189903
 C          4.3983717689        0.6374784907       -0.0166122094
 N          1.0498442853        2.1019473118        0.0203048046
 C         -0.2527040199        1.7014241994        0.0040787056
 C         -1.2971624169        2.6751799521        0.1193550927
 C         -0.9930075642        4.0335491741        0.2980326006
 C         -2.0101350528        4.9545695966        0.4201038352
 C         -3.3365049722        4.5552547957        0.3617487449
 C         -3.6616203225        3.2071686775        0.1782464465
 C         -5.0661325385        2.7782692716        0.1064155849
 C         -6.0115815726        3.5483131798       -0.5683742961
 C         -7.3310906120        3.1426646694       -0.6375186146
 C         -7.7300892584        1.9624622326       -0.0321127721
 C         -6.7992284887        1.1888644294        0.6416617754
 C         -5.4789582197        1.5914500404        0.7096199740
 C         -2.6396921094        2.2796439236        0.0616027476
 N         -0.5392654958        0.4123268889       -0.1014131752
 C         -1.2353213198       -2.3178702082       -0.1795058101
 C         -3.4606295656       -5.1329924883       -0.8924052388
 C         -4.7732398081       -5.5449929990       -0.7579571928
 H         -6.6292421033       -5.2582522699        0.2720605442
 H         -5.7591874462       -3.4243661070        1.6758329609
 H         -3.4235302688       -2.6951253582        1.4437520847
 H         -0.7742459992       -5.6535911100       -0.4322712668
 H          1.5642752623       -4.9233081606       -0.6397829122
 H          2.1304510375       -2.5168507630       -0.5263766119
 H          2.9296429752        3.6859081490        0.0273593037
 H          5.3072242025        4.3750157937        0.1368028809
 H          7.0823689067        2.6752878894        0.1672880120
 H          8.0890329092        1.0584660957       -1.2690652439
 H          9.8638524819       -0.6400694127       -1.2176910707
 H          9.5804489417       -2.6881922689        0.1287886881
 H          7.5114147072       -3.0218159401        1.4315598604
 H          5.7442102251       -1.3142858336        1.3989221710
 H          4.1227218565       -0.4043902734       -0.0760189734
 H          0.0426105030        4.3327301436        0.3415054452
 H         -1.7743148454        5.9989036236        0.5662173910
 H         -4.1242421005        5.2837470576        0.4804918459
 H         -5.7036013977        4.4597092027       -1.0595302366
 H         -8.0515955976        3.7475000834       -1.1688535576
 H         -8.7615463108        1.6470134960       -0.0855987389
 H         -7.1054272322        0.2685299673        1.1175238028
 H         -4.7615709170        0.9930092006        1.2514607336
 H         -2.8610860789        1.2361836331       -0.1042410211
 H         -2.0075030020       -1.5711902456       -0.0721831604
 H         -2.8221977271       -5.6028945009       -1.6261840193
 H         -5.1505203153       -6.3465459339       -1.3763513944
  69
       -105.95528597
 C         -5.7094383279       -4.7706351009        0.1029261853
 C         -4.8005365903       -5.4628759268       -0.6801080779
 C         -3.4663137840       -5.1012907568       -0.6818069085
 C         -3.0188357320       -4.0366112228        0.0974176813
 C         -1.6011391649       -3.6457957097        0.0963064747
 C         -0.5911898370       -4.6132130416        0.0945591958
 C          0.7422354074       -4.2330190767        0.0974759507
 C          1.0944639232       -2.9008295779        0.1005706757
 C          0.0965648496       -1.9147398912        0.1006916341
 C          0.4336996182       -0.5230269796        0.1178887207
 N          1.7452634214       -0.1364521346        0.1544680177
 C          2.0075397493        1.1562338310        0.2232832623
 C          3.4072745027        1.5763389873        0.2678568674
 C          3.7344852565        2.9104447982        0.5083670004
 C          5.0610899104        3.2922192547        0.5415056757
 C          6.0642053583        2.3621122957        0.3272824749
 C          5.7524702101        1.0247058399        0.0816905666
 C          6.8143156685        0.0352991785       -0.1589742700
 C          7.9113154979        0.3531801780       -0.9561605866
 C          8.9046848217       -0.5796309929       -1.1894918054
 C          8.8209406343       -1.8418406885       -0.6259553701
 C          7.7356339910       -2.1671754541        0.1705740068
 C          6.7380936718       -1.2380510426        0.4003201451
 C          4.4178169986        0.6417370525        0.0604678927
 N          1.0722008267        2.0867580822        0.2488193570
 C         -0.2339802536        1.6875968563        0.1733857834
 C         -1.2849477048        2.6591858780        0.1608743727
 C         -1.0094198213        4.0279930223        0.3003250261
 C         -2.0424740048        4.9398417702        0.2875325901
 C         -3.3549804978        4.5219968033        0.1284675782
 C         -3.6505436668        3.1626490828       -0.0199074682
 C         -5.0344535062        2.7061444504       -0.2144263387
 C         -5.4881913677        1.5342908845        0.3889506640
 C         -6.7845110969        1.0974269174        0.1934731462
 C         -7.6502772490        1.8213131449       -0.6098243640
 C         -7.2108155828        2.9873872978       -1.2144588514
 C         -5.9152722343        3.4272693837       -1.0182137326
 C         -2.6141951422        2.2450066088        0.0037780838
 N         -0.5132174174        0.3972335771        0.1142370964
 C         -1.2484326359       -2.3071917960        0.0985309080
 C         -3.9428001580       -3.3454921571        0.8791721732
 C         -5.2754155808       -3.7115669191        0.8831156728
 H         -6.7510580566       -5.0556064915        0.1053656035
 H         -5.1343019193       -6.2870880993       -1.2936611084
 H         -2.7654095323       -5.6339616233       -1.3077488303
 H         -0.8539979530       -5.6601288380        0.1148315371
 H          1.5118296456       -4.9915253876        0.1021489366
 H          2.1288274767       -2.5943420483        0.1047742032
 H          2.9422399329        3.6247755088        0.6691604637
 H          5.3189621017        4.3228931093        0.7360161172
 H          7.0992386375        2.6680807101        0.3680789215
 H          7.9729331710        1.3303011182       -1.4127676347
 H          9.7465734395       -0.3220782157       -1.8155831755
 H          9.5979909741       -2.5693858146       -0.8077360493
 H          7.6674441601       -3.1493431691        0.6152282764
 H          5.9014978518       -1.4911207402        1.0349987795
 H          4.1440837603       -0.3819177395       -0.1446861137
 H          0.0155439422        4.3430819332        0.4186649131
 H         -1.8299864628        5.9928736289        0.4041151185
 H         -4.1560032354        5.2455762302        0.1386880738
 H         -4.8234167128        0.9743918645        1.0298802837
 H         -7.1224761836        0.1881911863        0.6689856042
 H         -8.6623062069        1.4778620261       -0.7648870635
 H         -7.8804156659        3.5539790824       -1.8451963401
 H         -5.5732031998        4.3265016391       -1.5092656964
 H         -2.8100771875        1.1922890374       -0.1321955944
 H         -2.0073319251       -1.5397889759        0.0782319085
 H         -3.6063827816       -2.5304678217        1.5030416709
 H         -5.9792496384       -3.1713808679        1.4997828245
