  77
       -111.58602398
 C         -3.4884024749       -5.5653504958        1.5593574462
 C         -3.8217248587       -4.9330469990        0.1998936351
 C         -3.0994668071       -5.6957368330       -0.9207825186
 C         -5.3298081561       -5.0656042169       -0.0309291957
 C         -3.3536172595       -3.4871818023        0.1974535900
 C         -1.9900821542       -3.2149588915        0.3798515496
 C         -1.4756607464       -1.9347695574        0.3820562145
 C         -2.3550511624       -0.8780209912        0.1867615204
 C         -3.7393415819       -1.1240321241        0.0327929289
 C         -4.2288425924       -2.4193730945        0.0334073569
 C         -4.3671686521        0.1659802135       -0.0869511736
 C         -5.6802266203        0.5672791350       -0.2651511142
 C         -5.9789152708        1.9213366802       -0.3716781101
 C         -7.3979893557        2.4317593177       -0.5583600711
 C         -8.4295318283        1.3012795278       -0.6122421107
 C         -7.7560009898        3.3500044593        0.6197207277
 C         -7.4825370668        3.2175126527       -1.8753153872
 C         -4.9270399502        2.8471744241       -0.3138987204
 C         -3.6101837241        2.4753656299       -0.1380236358
 C         -3.3279113891        1.1221505900       -0.0008466220
 N         -2.1220517457        0.4794102268        0.1660302396
 C         -0.8781129754        1.0961494221        0.2919796781
 C          0.2105680420        0.6519626969       -0.4746327958
 C          1.4378309897        1.2488444807       -0.3549248052
 C          1.6488678324        2.2973433088        0.5683863659
 C          2.9099641997        2.9797696690        0.7415653196
 O          2.9355399388        4.1470235059        1.2254698690
 C          4.1558837022        2.3341125515        0.3362044511
 C          5.2544589780        3.1492500499       -0.0096856030
 C          6.4611662968        2.6062380704       -0.3785178817
 C          6.5957702537        1.2224911799       -0.3862543162
 S          8.0362245515        0.3271514888       -0.8136779955
 C          7.2292352179       -1.1892323552       -0.4719835878
 C          7.7899671840       -2.4497047781       -0.5946552627
 C          7.0103379318       -3.5495576166       -0.2869660406
 C          5.6951011107       -3.3907367225        0.1349353235
 C          5.1383961487       -2.1313425646        0.2569438248
 C          5.9024193451       -1.0102529879       -0.0449353624
 C          5.5324722313        0.3843114830        0.0027193865
 C          4.3238790971        0.9441225180        0.3757163419
 C          0.5232847677        2.7830087043        1.2789398212
 C         -0.7006504337        2.1868964609        1.1594248193
 H         -3.9816077483       -5.0177216421        2.3598531920
 H         -2.4190574658       -5.5583232299        1.7511090306
 H         -3.8317121396       -6.5971831353        1.5844534446
 H         -3.3098726338       -5.2366985768       -1.8846161471
 H         -3.4408252994       -6.7280545795       -0.9486106306
 H         -2.0233132268       -5.6986748044       -0.7726262542
 H         -5.8929788986       -4.5738940551        0.7590143671
 H         -5.6176404407       -4.6446068049       -0.9917118601
 H         -5.6045878455       -6.1182673534       -0.0308610792
 H         -1.3038374340       -4.0335011208        0.5309891786
 H         -0.4227646346       -1.7632257516        0.5444488269
 H         -5.2873253571       -2.5738570177       -0.0902436889
 H         -6.4493159878       -0.1842768580       -0.3225198572
 H         -8.4295366841        0.7253175121        0.3104476867
 H         -8.2385050918        0.6354053446       -1.4508460382
 H         -9.4231779966        1.7249924261       -0.7416581784
 H         -8.7749891133        3.7150086445        0.5120497525
 H         -7.0916628269        4.2079522720        0.6720857709
 H         -7.6821778253        2.8040179958        1.5580362427
 H         -8.4993114688        3.5699506548       -2.0339067625
 H         -7.2033147174        2.5806247300       -2.7122340197
 H         -6.8221851595        4.0800023115       -1.8689108191
 H         -5.1430042486        3.8989824436       -0.4167438909
 H         -2.8252889608        3.2155004478       -0.1236858546
 H          0.0556798182       -0.1330568903       -1.2009031636
 H          2.2408933947        0.9398347324       -1.0057328209
 H          5.1156424040        4.2186568513        0.0099078360
 H          7.2907478495        3.2361910452       -0.6600719453
 H          8.8115999684       -2.5623280003       -0.9223152472
 H          7.4286809543       -4.5405569819       -0.3757999312
 H          5.1024349637       -4.2620977869        0.3699697331
 H          4.1167042872       -2.0113291947        0.5852353361
 H          3.5285593794        0.3091961880        0.7320330510
 H          0.6772042703        3.6151186436        1.9481247677
 H         -1.5325989356        2.5201152048        1.7621490660
