  164
       -240.07511243
 C         -5.6617709111       -5.4080848393        2.6278809766
 C         -6.4090928080       -4.9391893521        1.4155253697
 C         -7.0796212128       -5.8544168411        0.6107186258
 C         -7.7863428369       -5.4199544441       -0.4958215420
 C         -7.8252843787       -4.0789132953       -0.8248756669
 C         -7.1579031899       -3.1476269886       -0.0302684305
 N         -7.1715945620       -1.7920162051       -0.3583795250
 C         -8.2783826921       -1.2263913436       -1.0021253451
 C         -9.5755187292       -1.5532291920       -0.6096851314
 C        -10.6527899651       -0.9752797686       -1.2514597613
 C        -10.4586679963       -0.0744305985       -2.2851889822
 C         -9.1723261688        0.2567955196       -2.6932250534
 C         -8.9404155652        1.1870694743       -3.8464503485
 C         -8.0930070564       -0.3204656430       -2.0440437165
 C         -6.0525952354       -0.9871069301       -0.1083602302
 C         -6.2398671763        0.3354891100        0.2719796746
 C         -5.1403506944        1.1698822206        0.4625874000
 C         -3.8286346921        0.6666122093        0.3405345162
 C         -3.6691823603       -0.6956351047        0.0103027078
 C         -4.7711383382       -1.5043137909       -0.2494475902
 N         -2.4009331545       -1.2310467204       -0.0744980493
 C         -2.2876669159       -2.6406594846       -0.2421963167
 C         -1.9718778101       -3.1812082266       -1.4831153188
 C         -1.8373917387       -4.5500237749       -1.6244978912
 C         -2.0248005134       -5.3839923994       -0.5348624115
 C         -2.3507153839       -4.8471734719        0.6988331928
 C         -2.4808709984       -3.4784759355        0.8483058893
 C         -1.2404836731       -0.4802760468       -0.0241558536
 C         -0.0217822526       -1.1329993144       -0.1711038184
 C          1.1802691378       -0.4374678328       -0.2273925348
 C          1.1820838272        0.9778763741       -0.1708697277
 C         -0.0486331303        1.5808856726        0.0790232414
 C         -1.2684477801        0.9183693153        0.1999832348
 B         -2.6230151896        1.5657670198        0.5528211693
 C         -2.9581585499        2.9767854170        1.0822971924
 C         -2.0211709603        3.9098204520        1.5468775729
 C         -2.3656693668        5.1805084866        1.9410247988
 C         -3.6958897037        5.5953120214        1.8743231112
 C         -4.0699277211        6.9955502797        2.2554309138
 C         -4.6511672297        4.6881846977        1.4696639923
 C         -4.3134875444        3.3749351047        1.1129103466
 N         -5.3334425455        2.4968514466        0.7869739041
 C         -6.6828329629        2.9423281404        0.8984979645
 C         -7.2705225741        3.0658746806        2.1510877745
 C         -8.5899809181        3.4685698070        2.2472934259
 C         -9.3228479746        3.7335836114        1.1042152419
 C         -8.7476408777        3.6081504437       -0.1548391488
 C         -9.5576699168        3.8582958074       -1.3888221640
 C         -7.4193313628        3.2162703416       -0.2455415267
 B          2.5343523347        1.7058305285       -0.3068550969
 C          2.8599816060        3.2038166557       -0.4877385859
 C          1.9288208270        4.1984963874       -0.8148229391
 C          2.2684493449        5.5239867521       -0.9458113794
 C          3.5912446798        5.9276158510       -0.7648225342
 C          3.9644701234        7.3730582356       -0.8969723313
 C          4.5422157150        4.9698769539       -0.4853154700
 C          4.2045195742        3.6158079512       -0.3535990538
 N          5.2203303871        2.7045810733       -0.1195141297
 C          6.5409217540        3.1967786902        0.0933464236
 C          6.9003018956        3.6867787464        1.3416344219
 C          8.1911834527        4.1388659844        1.5485820651
 C          9.1199024825        4.0923263426        0.5239779072
 C          8.7724906762        3.6017216976       -0.7292011650
 C          9.7854571274        3.5164399643       -1.8285823714
 C          7.4725476043        3.1618177598       -0.9355212000
 C          5.0500565072        1.3358266464       -0.1325754013
 C          6.1543336458        0.4959291569       -0.0027457072
 C          5.9952929563       -0.8801849101       -0.0994539151
 N          7.1200833308       -1.7121581571       -0.0294264476
 C          7.0300549904       -2.9612016384        0.5885535515
 C          7.7472988940       -4.0509383666        0.0977807344
 C          7.6306915252       -5.2844723947        0.7091269996
 C          6.7979729020       -5.4549379054        1.7999701806
 C          6.0766059492       -4.3775954236        2.3046188918
 C          5.1831695536       -4.5616976612        3.4946209255
 C          6.2066939367       -3.1397252522        1.7010347879
 C          8.3247241325       -1.2877819445       -0.5985790235
 C          8.3282540212       -0.5813318248       -1.8021058565
 C          9.5223652387       -0.1596389300       -2.3488674251
 C         10.7242726420       -0.4337659228       -1.7159907891
 C         10.7394615746       -1.1388545625       -0.5199772883
 C         12.0261419436       -1.4457780135        0.1858248465
 C          9.5371678264       -1.5576296757        0.0302725507
 C          4.7309648116       -1.4330893315       -0.2627797409
 C          3.6127102130       -0.6055365106       -0.2696207848
 C          3.7503300394        0.7985541305       -0.2386338946
 N          2.3532580977       -1.1625479270       -0.3368239121
 C          2.2484739939       -2.5820800125       -0.4109401655
 C          2.3575914050       -3.3519498525        0.7404895455
 C          2.2202303144       -4.7257021994        0.6657254047
 C          1.9708180606       -5.3348981708       -0.5525174098
 C          1.8683092889       -4.5686500011       -1.7011098490
 C          2.0095626281       -3.1942282000       -1.6343573480
 C         -6.4621079898       -3.5946379192        1.0938642950
 H         -5.0410339193       -6.2683673012        2.3832125128
 H         -5.0301642339       -4.6178082057        3.0255188354
 H         -6.3618355793       -5.7137333983        3.4060134133
 H         -7.0466329110       -6.9061844430        0.8545243547
 H         -8.3034357435       -6.1351043210       -1.1191445207
 H         -8.3627978037       -3.7471434906       -1.7007371999
 H         -9.7271345331       -2.2538489985        0.1979525199
 H        -11.6562289946       -1.2253163083       -0.9388438581
 H        -11.3107067121        0.3678683363       -2.7813521332
 H         -9.8236332936        1.7872941986       -4.0515049808
 H         -8.7067328125        0.6122305572       -4.7432144111
 H         -8.0993002756        1.8473590109       -3.6471191632
 H         -7.0870082043       -0.0738940303       -2.3520955363
 H         -7.2467033665        0.6965954127        0.4075321027
 H         -4.6474740035       -2.5282790637       -0.5653315959
 H         -1.8241322939       -2.5207488875       -2.3248104116
 H         -1.5861766353       -4.9670763744       -2.5883973894
 H         -1.9172820169       -6.4522444370       -0.6482475174
 H         -2.4969889849       -5.4953268518        1.5496296398
 H         -2.7288171502       -3.0469908909        1.8067478443
 H         -0.0084906252       -2.2085888678       -0.2367786804
 H         -0.0574319124        2.6507107202        0.1897886470
 H         -0.9875927167        3.6114431464        1.6200879891
 H         -1.6091070300        5.8671050157        2.2935603484
 H         -3.7783330312        7.1979435734        3.2856713606
 H         -3.5518152577        7.7116199232        1.6181349252
 H         -5.1413177277        7.1548970024        2.1590165533
 H         -5.6839699653        5.0033444989        1.4337692361
 H         -6.6888056734        2.8499618283        3.0346945797
 H         -9.0507351527        3.5700558882        3.2187864920
 H        -10.3556116863        4.0394940699        1.1875009487
 H        -10.3011913437        4.6328928276       -1.2151643044
 H        -10.0798516909        2.9434243135       -1.6695488751
 H         -8.9224969265        4.1557974833       -2.2192785267
 H         -6.9471400021        3.1089529562       -1.2113699464
 H          0.9054208200        3.9096207427       -0.9945119535
 H          1.5156134051        6.2585416608       -1.1945580180
 H          3.6966666601        7.7452497970       -1.8854295520
 H          3.4262233158        7.9703399576       -0.1614161574
 H          5.0320107113        7.5168324546       -0.7478085043
 H          5.5734547708        5.2756921701       -0.3828720128
 H          6.1672643052        3.7130743193        2.1338025783
 H          8.4758993830        4.5242759227        2.5165033084
 H         10.1280456739        4.4398055237        0.6975779743
 H         10.2605985571        2.5352860282       -1.8086324461
 H          9.3151255849        3.6430971633       -2.8005606759
 H         10.5581237056        4.2714190642       -1.7065900425
 H          7.1765293914        2.7758580377       -1.9003204303
 H          7.1437753670        0.8934558822        0.1552623438
 H          8.3850922401       -3.9260800654       -0.7646827545
 H          8.1874350726       -6.1249680315        0.3205855017
 H          6.7053203716       -6.4253232179        2.2653375612
 H          5.7671039926       -4.8631097635        4.3640297105
 H          4.4507382544       -5.3441639716        3.3001147267
 H          4.6566845607       -3.6410477666        3.7334000642
 H          5.6633289197       -2.2912846085        2.0913696870
 H          7.3927215563       -0.3751372536       -2.2998003957
 H          9.5188470908        0.3780670168       -3.2862142893
 H         11.6538684642       -0.1019590466       -2.1558923244
 H         12.0179271311       -1.0235946681        1.1899315576
 H         12.8756538253       -1.0381649563       -0.3563468670
 H         12.1579683636       -2.5230375749        0.2803620089
 H          9.5372271773       -2.1005987732        0.9648966708
 H          4.6327875061       -2.5027484640       -0.3594212045
 H          2.5449171865       -2.8652776011        1.6858959978
 H          2.3013777693       -5.3221868425        1.5619883145
 H          1.8571546946       -6.4071563569       -0.6068549274
 H          1.6774124569       -5.0425339509       -2.6524696976
 H          1.9254107311       -2.5847634301       -2.5219290707
 H         -5.9566056135       -2.8726082919        1.7187316643
