  106
       -152.77568896
 C         -4.4061404068        4.9120463493        4.0094163661
 C         -3.4400665767        4.3315255817        2.9732290067
 C         -3.1336777287        5.4262685452        1.9408423986
 C         -2.1500135437        3.9240765453        3.6993089657
 C         -4.0055260320        3.1174619603        2.2526574102
 C         -5.2733146653        2.6072869894        2.5122166852
 C         -5.7687001085        1.4994257203        1.8417104033
 C         -4.9822240964        0.8845735836        0.8855039359
 C         -3.7042354808        1.3902339074        0.6105710178
 C         -3.2207328795        2.4866042678        1.2841710588
 C         -3.0219337938        0.5681100936       -0.4670471354
 C         -2.7889914793        1.3448733978       -1.7434076606
 C         -3.5206811162        2.4844469282       -2.0556392166
 C         -3.3033439111        3.1159955665       -3.2691175294
 C         -2.3671892334        2.5760251042       -4.1363195333
 N         -1.6717002069        1.4868509170       -3.8564022690
 C         -1.8784565128        0.8930920931       -2.6966535383
 C         -1.7368850765       -0.0149785282        0.0858050602
 C         -0.5817969113        0.7739492912        0.1052002050
 C          0.6092537461        0.3152656555        0.6292832711
 C          0.6479377918       -0.9761259197        1.1319538023
 C         -0.5173903709       -1.7735237138        1.1481070513
 C         -1.7091614013       -1.2870008681        0.6302509261
 C         -0.1520453214       -3.0175353021        1.7646390472
 C         -0.8490585321       -4.1874537964        2.0350606006
 C         -0.1746702123       -5.2359958237        2.6275020859
 C          1.1804304757       -5.1331605488        2.9339213329
 C          1.8950226257       -3.9795669264        2.6728937820
 C          1.2169590874       -2.9127961808        2.1009859423
 N          1.6891034143       -1.6722808537        1.7143258241
 C          2.9981961254       -1.2063169041        1.8876132641
 C          3.6167948914       -1.3137376165        3.1310392824
 C          4.9164056919       -0.8707191875        3.2927845627
 C          5.6056562943       -0.3072507647        2.2349150904
 C          4.9916100284       -0.1954444586        0.9896715342
 N          5.6913234273        0.3589947984       -0.0892902233
 C          6.9597873939       -0.0065635026       -0.4987384968
 C          7.7965533798       -0.9981313275       -0.0074406752
 C          9.0201440310       -1.1745491295       -0.6248665201
 C          9.4061389103       -0.3937389296       -1.7118901334
 C          8.5671908938        0.5769531405       -2.2214085163
 C          7.3324150495        0.7730655144       -1.6174119649
 C          6.2309632351        1.6542662427       -1.8869082772
 C          6.0128317017        2.6488573153       -2.8310186922
 C          4.8198972156        3.3425712980       -2.7984013777
 C          3.8586503199        3.0679109904       -1.8286643586
 C          4.0557775136        2.0852740471       -0.8779904615
 C          5.2390339343        1.3638676587       -0.9228881987
 C          3.6892309267       -0.6506241613        0.8164983802
 C         -4.0832466414       -0.4767123651       -0.7596570557
 C         -4.0320143923       -1.5108668286       -1.6637687859
 C         -5.1181252955       -2.3795779863       -1.7941993806
 C         -5.0170086897       -3.5309757281       -2.7820861006
 C         -3.8499926309       -4.4373939699       -2.3634526768
 C         -4.7622940822       -2.9678462492       -4.1873963861
 C         -6.2880512940       -4.3830637217       -2.8346216359
 C         -6.2407178794       -2.1589325075       -1.0022787807
 C         -6.3041610011       -1.1135179138       -0.0938627927
 C         -5.2190137719       -0.2662478867        0.0328142298
 H         -4.6388793787        4.1809738369        4.7802610571
 H         -3.9456872089        5.7724802855        4.4911014433
 H         -5.3298734209        5.2448985265        3.5416095181
 H         -4.0417523680        5.7085778110        1.4115571894
 H         -2.4038857825        5.0901133817        1.2093635523
 H         -2.7358411903        6.3089330045        2.4373470022
 H         -1.7358811691        4.7765053862        4.2338024526
 H         -1.3985859024        3.5606878749        3.0037521377
 H         -2.3575457845        3.1333428836        4.4173537257
 H         -5.9036942806        3.0723761706        3.2524117837
 H         -6.7572855229        1.1267782744        2.0663990394
 H         -2.2325837478        2.8560256625        1.0574095402
 H         -4.2484418329        2.8731812449       -1.3575087520
 H         -3.8529820484        4.0060467971       -3.5350267892
 H         -2.1615913005        3.0283161517       -5.0976548520
 H         -1.2766288895        0.0117547772       -2.5129205762
 H         -0.6167830289        1.7690468268       -0.3138096487
 H          1.4786580736        0.9530849271        0.6520864607
 H         -2.5981449133       -1.8981982277        0.6529288949
 H         -1.8948031264       -4.2702078471        1.7800405876
 H         -0.6973854139       -6.1544553057        2.8491591112
 H          1.6858133756       -5.9760473901        3.3816700021
 H          2.9495091937       -3.9194820552        2.8961804938
 H          3.0705314900       -1.7287304749        3.9639070427
 H          5.3918707972       -0.9503606610        4.2588587754
 H          6.6108473797        0.0615359721        2.3684151679
 H          7.5001126243       -1.6217105032        0.8224950942
 H          9.6906825196       -1.9377770595       -0.2582105286
 H         10.3721386659       -0.5604573717       -2.1647030891
 H          8.8582883106        1.1710677620       -3.0744457292
 H          6.7661882837        2.8739973010       -3.5706692512
 H          4.6285842172        4.1166603678       -3.5262566818
 H          2.9410715643        3.6371849591       -1.8171051350
 H          3.3160821189        1.8981880722       -0.1152804421
 H          3.2259140245       -0.5999487045       -0.1571365037
 H         -3.1436603782       -1.6476868947       -2.2613940939
 H         -2.9077064206       -3.8964148108       -2.3610675734
 H         -3.7603142698       -5.2753023965       -3.0515386425
 H         -4.0195195389       -4.8303093512       -1.3627736751
 H         -4.6996480984       -3.7790492663       -4.9097385930
 H         -5.5759066726       -2.3071583098       -4.4801406463
 H         -3.8352173357       -2.4033538727       -4.2300615572
 H         -6.1572058922       -5.1825332330       -3.5611358131
 H         -6.4957568428       -4.8391675696       -1.8693945979
 H         -7.1455703108       -3.7884958245       -3.1411676866
 H         -7.0960008820       -2.8098576119       -1.0821235147
 H         -7.1903907491       -0.9695333187        0.5065656552
