  61
  -97.4718000039000       0.303940713806816      !
 C         -8.0279517751        3.0303222177        0.0286012573
 C         -6.8539238476        3.1164827355       -0.7015238598
 C         -5.9586484545        2.0646979976       -0.7135282969
 C         -6.2253279776        0.9078756382        0.0178497209
 N         -5.3212730310       -0.1630058940        0.0091730945
 C         -5.8052291294       -1.4773838956       -0.0144325835
 C         -6.9426900874       -1.7975040883       -0.7547701767
 C         -7.4211043868       -3.0932574739       -0.7691479185
 C         -6.7730302269       -4.0888926798       -0.0565434804
 C         -5.6410328828       -3.7764040523        0.6782655783
 C         -5.1598649310       -2.4818907303        0.7062012160
 C         -3.9491888395        0.0804575505        0.0121452784
 C         -3.4202542664        1.1675663177        0.7116496046
 C         -2.0647199241        1.4132691212        0.7045361198
 C         -1.1861267112        0.5774854380        0.0140609722
 C          0.2537507209        0.8356388306        0.0075381028
 C          0.7533274112        2.1605495890       -0.0286744662
 N          2.0142194433        2.4816855778       -0.0385660617
 C          2.9305028382        1.5013834857       -0.0168077360
 N          4.2292700515        1.8793202143       -0.0260091473
 C          5.0944120965        0.9064588349       -0.0091399878
 C          4.7090621655       -0.4926096268        0.0181058232
 N          3.4657866512       -0.8792277360        0.0276445678
 C          2.5493363550        0.1240093354        0.0099492475
 C          1.1819858131       -0.1858328681        0.0248420777
 C          5.9233547089       -1.2951561193        0.0265712584
 C          6.2083144250       -2.6369760054        0.0479703061
 C          7.5596476255       -3.0311138976        0.0456148757
 C          8.5984386574       -2.1311844381        0.0229678216
 C          8.3404540524       -0.7418441211        0.0009797269
 C          9.2738704319        0.3194373336       -0.0242682985
 C          8.8426380020        1.6244345340       -0.0443683218
 C          7.4802480106        1.9785057322       -0.0417114271
 C          6.5482193033        0.9718087431       -0.0175761505
 C          6.9935746991       -0.3705149662        0.0038086309
 C         -1.7182686099       -0.5125207965       -0.6760194110
 C         -3.0739538761       -0.7554819798       -0.6850801432
 C         -7.4065001714        0.8272380832        0.7541118599
 C         -8.2994222896        1.8811526527        0.7529627594
 H         -8.7267923608        3.8528335813        0.0324131392
 H         -6.6369999319        4.0060483867       -1.2743591866
 H         -5.0491296708        2.1292527237       -1.2927041668
 H         -7.4443318757       -1.0245962107       -1.3185531422
 H         -8.3019606662       -3.3284153748       -1.3482224695
 H         -7.1477964648       -5.1009714834       -0.0732201807
 H         -5.1327917256       -4.5449582629        1.2419172275
 H         -4.2836358978       -2.2383171340        1.2891835670
 H         -4.0836448571        1.8134837818        1.2677502126
 H         -1.6760853364        2.2455343168        1.2722973104
 H          0.0634096476        2.9941337589       -0.0713954224
 H          0.8901794294       -1.2247014476        0.0714353029
 H          5.4237556279       -3.3774675677        0.0657835454
 H          7.7825286392       -4.0883748209        0.0621858801
 H          9.6205089969       -2.4816308224        0.0215103185
 H         10.3312241256        0.0965474701       -0.0283300768
 H          9.5760328148        2.4179038276       -0.0639024765
 H          7.1834430364        3.0154337885       -0.0586630924
 H         -1.0615397074       -1.1572490401       -1.2409975318
 H         -3.4699684402       -1.5917582035       -1.2422223295
 H         -7.6156755649       -0.0648372311        1.3262292080
 H         -9.2100980588        1.8072696001        1.3288611359
  61
  -97.4715814480000       0.241183471419864      !
 C         -7.3141748144        2.6711732426        2.4227316479
 C         -6.2795599326        3.0643171488        1.5896853839
 C         -5.6201849584        2.1367431387        0.8067969665
 C         -5.9849180569        0.7916597510        0.8549008151
 N         -5.3211155534       -0.1542797463        0.0626269984
 C         -6.0494666589       -1.1973397507       -0.5247760087
 C         -7.3309960902       -0.9687874298       -1.0243771164
 C         -8.0493919982       -2.0016653620       -1.5945508818
 C         -7.5027996256       -3.2713968857       -1.6834706635
 C         -6.2286313881       -3.5026655635       -1.1914963168
 C         -5.5055619878       -2.4783750673       -0.6118395169
 C         -3.9462713772       -0.0547282560       -0.1453068014
 C         -3.1050839332        0.4167890015        0.8649193777
 C         -1.7467967028        0.5138062184        0.6559637968
 C         -1.1791339421        0.1511664017       -0.5656493010
 C          0.2639050310        0.2640575928       -0.7841058441
 C          0.7757602868        0.6878768079       -2.0347739317
 N          2.0393907347        0.8147872124       -2.3182684642
 C          2.9454306185        0.5284956075       -1.3706868161
 N          4.2476663858        0.6651298401       -1.7104742376
 C          5.1030105985        0.3803607493       -0.7711201700
 C          4.7040554907       -0.0539313492        0.5552055796
 N          3.4572049302       -0.1906258942        0.9045251796
 C          2.5508288483        0.1016848684       -0.0648057369
 C          1.1806859339       -0.0247655292        0.2059924466
 C          5.9103209589       -0.2830050846        1.3369588036
 C          6.1822684936       -0.6908929504        2.6182896086
 C          7.5295933430       -0.7942303998        3.0127734325
 C          8.5769658532       -0.5047339794        2.1709996278
 C          8.3324541438       -0.0816263765        0.8449007890
 C          9.2760007370        0.2555432223       -0.1521675404
 C          8.8574924124        0.6503537865       -1.4007585098
 C          7.4987281171        0.7416177425       -1.7571682766
 C          6.5571806615        0.4207069424       -0.8120758224
 C          6.9893530485        0.0150224555        0.4722540287
 C         -2.0228262690       -0.3183985023       -1.5724422791
 C         -3.3814039770       -0.4238209935       -1.3680520354
 C         -7.0246930341        0.4003252869        1.6974530697
 C         -7.6835896697        1.3368731206        2.4700288511
 H         -7.8293750383        3.3995985354        3.0300556279
 H         -5.9884383197        4.1032788344        1.5418654998
 H         -4.8211938173        2.4475710444        0.1494650909
 H         -7.7555533180        0.0225921333       -0.9636802116
 H         -9.0404827308       -1.8112189527       -1.9791704834
 H         -8.0661669288       -4.0753346683       -2.1321909785
 H         -5.7968270699       -4.4909684353       -1.2509632550
 H         -4.5163889619       -2.6634916222       -0.2190854376
 H         -3.5273338572        0.7023456109        1.8171607467
 H         -1.1150750545        0.8918655298        1.4460277653
 H          0.0931414433        0.9534829774       -2.8323171643
 H          0.8781568589       -0.3705879871        1.1834774270
 H          5.3907395873       -0.9285598252        3.3118478239
 H          7.7422141803       -1.1156100921        4.0223605445
 H          9.5954998294       -0.5993596941        2.5191229538
 H         10.3310072853        0.2006228922        0.0750265159
 H          9.5984769196        0.9042177294       -2.1456514571
 H          7.2119231708        1.0568528316       -2.7485078502
 H         -1.6059375905       -0.6215968830       -2.5213342961
 H         -4.0195530924       -0.7904892169       -2.1584883007
 H         -7.3088504425       -0.6408843350        1.7418461306
 H         -8.4864963196        1.0205323940        3.1195797525
  61
  -97.4713447330000       0.187741749227323      !
 C         -7.8932392493        2.7953212361       -1.5607064367
 C         -6.6449547382        2.6053642267       -2.1304071461
 C         -5.7914196904        1.6361651268       -1.6400254346
 C         -6.1767051479        0.8445735276       -0.5588604240
 N         -5.3196144912       -0.1430841861       -0.0555153989
 C         -5.8602563318       -1.3624151490        0.3781511623
 C         -6.8988246917       -1.9627974867       -0.3320131224
 C         -7.4330608738       -3.1618050959        0.0986000425
 C         -6.9389275958       -3.7825774032        1.2340846514
 C         -5.9071791679       -3.1895300853        1.9432244642
 C         -5.3720647611       -1.9865601448        1.5254130207
 C         -3.9479562251        0.0819360836        0.0316225682
 C         -3.4429430369        1.3583726765        0.2897520829
 C         -2.0852358896        1.5661204257        0.4017060129
 C         -1.1807596046        0.5129919534        0.2608011808
 C          0.2594309697        0.7165755911        0.4214292338
 C          0.7592272803        1.6488191779        1.3639580637
 N          2.0198124737        1.8687088344        1.5999106586
 C          2.9370798416        1.1661703828        0.9172574811
 N          4.2351085511        1.4090111769        1.2102448486
 C          5.1001481859        0.6994244256        0.5442374500
 C          4.7156311564       -0.2825738727       -0.4530858733
 N          3.4731864378       -0.5278730967       -0.7556043424
 C          2.5566291968        0.1985616037       -0.0634331692
 C          1.1897409808       -0.0043183223       -0.3003541633
 C          5.9290820354       -0.8896405064       -0.9801282372
 C          6.2139594424       -1.8563374521       -1.9110737226
 C          7.5637178558       -2.1842640772       -2.1393366972
 C          8.6010409692       -1.5789741233       -1.4708121945
 C          8.3431037722       -0.5791155758       -0.5057893811
 C          9.2749703907        0.1422835557        0.2746389520
 C          8.8438526175        1.0852214717        1.1772289687
 C          7.4830459591        1.3847719919        1.3773284958
 C          6.5525585034        0.7019882858        0.6353761113
 C          6.9978463859       -0.2670473349       -0.2938791856
 C         -1.6898025683       -0.7572971509       -0.0136136386
 C         -3.0450257893       -0.9719372662       -0.1284090954
 C         -7.4334376836        1.0408402425        0.0124869461
 C         -8.2828593215        2.0070565476       -0.4903224410
 H         -8.5583604456        3.5515267354       -1.9490320651
 H         -6.3358114655        3.2110272616       -2.9695289873
 H         -4.8230757583        1.4819765071       -2.0932463157
 H         -7.2792043076       -1.4837717636       -1.2224175461
 H         -8.2349482655       -3.6189439309       -0.4622580438
 H         -7.3560426709       -4.7214120040        1.5651992878
 H         -5.5209803449       -3.6625437939        2.8341268246
 H         -4.5745053308       -1.5204876635        2.0854700742
 H         -4.1263161249        2.1855258630        0.4131495430
 H         -1.7201960325        2.5646836130        0.5902773945
 H          0.0701174449        2.2252553675        1.9683416675
 H          0.9012541047       -0.7184311255       -1.0574065906
 H          5.4304556295       -2.3585021776       -2.4571338747
 H          7.7864937414       -2.9463347698       -2.8725377494
 H          9.6219332276       -1.8655379979       -1.6791389410
 H         10.3309726883       -0.0546124279        0.1572170793
 H          9.5760766759        1.6233073675        1.7622839562
 H          7.1861959602        2.1308108447        2.0976872679
 H         -1.0136129718       -1.5923753732       -0.1191633181
 H         -3.4178046985       -1.9629069808       -0.3416069145
 H         -7.7353263858        0.4326571567        0.8526681274
 H         -9.2530550317        2.1500048140       -0.0377217298
  61
  -97.4705140231000       7.794585454975604E-002 !
 C         -8.0957458075        2.7923425968       -1.1423031571
 C         -6.9420416260        2.6294917638       -1.8918507202
 C         -6.0188916213        1.6586513317       -1.5538127300
 C         -6.2391693822        0.8386756723       -0.4484498577
 N         -5.3069424553       -0.1470967398       -0.0921980440
 C         -5.7794869072       -1.3888321599        0.3590074371
 C         -6.8685562356       -1.9896219231       -0.2703895149
 C         -7.3420981540       -3.2092153531        0.1735669109
 C         -6.7373822710       -3.8490414429        1.2430240517
 C         -5.6567854178       -3.2541626395        1.8735960284
 C         -5.1810652312       -2.0311783694        1.4421294851
 C         -3.9424644616        0.1212077526       -0.1121801815
 C         -3.4566434437        1.4131250941        0.1047185750
 C         -2.1009767576        1.6552601967        0.1470173675
 C         -1.1763817848        0.6230929659       -0.0203824256
 C          0.2607754133        0.8461334307        0.1376924101
 C          0.7400599070        1.8073022778        1.0627481506
 N          1.9934686581        2.0205038805        1.3374929152
 C          2.9249729374        1.2765131979        0.7213031983
 N          4.2111076880        1.4891472442        1.0806668943
 C          5.0882736257        0.7293121290        0.4902747666
 C          4.7294479190       -0.2683989937       -0.5006966384
 N          3.4991271973       -0.4813018587       -0.8705721520
 C          2.5683087821        0.2902715232       -0.2496131118
 C          1.2087690565        0.1015665792       -0.5362834739
 C          5.9489353480       -0.9404367109       -0.9257278403
 C          6.2537621514       -1.9520730885       -1.8009819378
 C          7.5995195812       -2.3478119929       -1.9193474163
 C          8.6138566266       -1.7661952497       -1.1966610301
 C          8.3350584724       -0.7219604376       -0.2859718747
 C          9.2410488931       -0.0187935600        0.5403999388
 C          8.7909998274        0.9718455276        1.3805537995
 C          7.4349825397        1.3389025286        1.4706793690
 C          6.5296985748        0.6756269593        0.6813631668
 C          6.9944798172       -0.3416961610       -0.1844828813
 C         -1.6677423603       -0.6576392060       -0.2812001575
 C         -3.0208813915       -0.9058581413       -0.3327180971
 C         -7.4030366484        1.0036809351        0.3009664515
 C         -8.3225602838        1.9734789408       -0.0482047304
 H         -8.8139989761        3.5525339849       -1.4092630386
 H         -6.7621125399        3.2590641625       -2.7507915950
 H         -5.1227983792        1.5267075370       -2.1425849301
 H         -7.3362791036       -1.4935957147       -1.1083793001
 H         -8.1837831588       -3.6669132259       -0.3249028484
 H         -7.1063536998       -4.8043880158        1.5839627081
 H         -5.1848838293       -3.7418672517        2.7138555853
 H         -4.3452307186       -1.5640514979        1.9422143747
 H         -4.1518163741        2.2245724259        0.2610436396
 H         -1.7551755782        2.6650605739        0.3094942007
 H          0.0386350394        2.4137193741        1.6214986828
 H          0.9411312600       -0.6316032105       -1.2826604210
 H          5.4883050813       -2.4391380800       -2.3849457844
 H          7.8376945303       -3.1463300592       -2.6074904533
 H          9.6321008029       -2.1066485351       -1.3190727177
 H         10.2921067750       -0.2677648640        0.5080982090
 H          9.5032069366        1.4936525768        2.0037618003
 H          7.1219528832        2.1192014506        2.1465870374
 H         -0.9786657250       -1.4770841445       -0.4194575247
 H         -3.3773583581       -1.9054682638       -0.5328821898
 H         -7.5757604250        0.3699101104        1.1586147140
 H         -9.2179175478        2.0957558659        0.5433996022
  61
  -97.4704091486000       6.975832429432906E-002 !
 C         -7.6717363428        3.1558535341       -0.8489819599
 C         -6.3595023870        3.0828033761       -1.2858561914
 C         -5.5842209009        1.9784179271       -0.9911828443
 C         -6.1122791913        0.9278909750       -0.2407502613
 N         -5.3302002360       -0.1969130145        0.0495995936
 C         -5.8981075894       -1.4754647413        0.0511254965
 C         -6.9328211277       -1.8002684045       -0.8256757054
 C         -7.4967939196       -3.0608173205       -0.7992483227
 C         -7.0350095554       -4.0187664654        0.0884562938
 C         -5.9987331536       -3.7051849271        0.9525866519
 C         -5.4339261835       -2.4447378596        0.9402710112
 C         -3.9558941409       -0.0401930995        0.2429845819
 C         -3.4680910558        1.0323959717        0.9917310286
 C         -2.1124962826        1.2373739664        1.1218069104
 C         -1.1924791440        0.3851240147        0.5062123849
 C          0.2428708917        0.6674295064        0.5343316459
 C          0.7058103120        2.0064803566        0.5886478705
 N          1.9544010267        2.3685904978        0.5543086961
 C          2.8977694545        1.4223096025        0.4329594400
 N          4.1788362530        1.8469465213        0.3502113739
 C          5.0668133558        0.9104813022        0.1791401735
 C          4.7235155028       -0.4971908615        0.0923484209
 N          3.4996044706       -0.9299436725        0.1967760949
 C          2.5580535528        0.0358213147        0.3658145093
 C          1.2036863791       -0.3207310339        0.4417834437
 C          5.9486261454       -1.2445481324       -0.1535391891
 C          6.2660254245       -2.5645002867       -0.3525189415
 C          7.6109207445       -2.8962034258       -0.6036103296
 C          8.6132123620       -1.9570072377       -0.6562831628
 C          8.3220309212       -0.5889404983       -0.4536139961
 C          9.2145626664        0.5069014753       -0.4797093290
 C          8.7532699494        1.7850240333       -0.2712553292
 C          7.3975065118        2.0773323997       -0.0307207618
 C          6.5050471502        1.0356067066       -0.0003823284
 C          6.9820975419       -0.2798340482       -0.2062214072
 C         -1.6883797165       -0.7137726386       -0.1988670120
 C         -3.0432115023       -0.9292589786       -0.3260304779
 C         -7.4300054537        1.0122231853        0.2078406705
 C         -8.2007827900        2.1158424440       -0.1021995932
 H         -8.2775325847        4.0162619794       -1.0891070396
 H         -5.9377484780        3.8862737641       -1.8716098506
 H         -4.5665439266        1.9187895529       -1.3484399272
 H         -7.2879658537       -1.0600242954       -1.5275087752
 H         -8.2981911944       -3.2984357517       -1.4833316773
 H         -7.4788496445       -5.0024851844        0.1059026217
 H         -5.6333909458       -4.4449910774        1.6495899370
 H         -4.6340457647       -2.1984167774        1.6233383081
 H         -4.1670738056        1.7075395320        1.4633127688
 H         -1.7624695916        2.0614070656        1.7248334413
 H         -0.0047057847        2.8215413620        0.6383792982
 H          0.9509808355       -1.3704306696        0.4220787284
 H          5.5105854864       -3.3343465494       -0.3241092460
 H          7.8582714327       -3.9358072950       -0.7648120437
 H          9.6310935010       -2.2595671123       -0.8565622201
 H         10.2643389179        0.3322105335       -0.6672802388
 H          9.4555727114        2.6059975119       -0.2964191836
 H          7.0744808150        3.0952680911        0.1212492854
 H         -1.0026423152       -1.3851139781       -0.6932600155
 H         -3.4078337651       -1.7720372077       -0.8949210918
 H         -7.8429993685        0.2076462295        0.7984316178
 H         -9.2208774218        2.1673544213        0.2489478407
  61
  -97.4702511605000       5.901871316270059E-002 !
 C         -8.1298272916        2.7853731350       -1.0663679762
 C         -6.9890725058        2.6375054886       -1.8386310133
 C         -6.0539205988        1.6690284389       -1.5277385418
 C         -6.2485912074        0.8364130917       -0.4270356875
 N         -5.3031046605       -0.1461304882       -0.0976144544
 C         -5.7583207855       -1.3941878741        0.3545177239
 C         -6.8556240494       -1.9981429680       -0.2573453015
 C         -7.3100311809       -3.2255329432        0.1850742220
 C         -6.6777199632       -3.8705325522        1.2352585331
 C         -5.5897696577       -3.2720018831        1.8494249873
 C         -5.1336846893       -2.0408886191        1.4201582488
 C         -3.9411349340        0.1331579236       -0.1340193160
 C         -3.4608646181        1.4275701635        0.0802209622
 C         -2.1062367096        1.6776007251        0.1112164608
 C         -1.1766071059        0.6510241699       -0.0629966942
 C          0.2601006077        0.8788275137        0.0917783976
 C          0.7393717765        1.8498635845        1.0065259970
 N          1.9925198832        2.0624042066        1.2832230984
 C          2.9238740959        1.3075429660        0.6802855783
 N          4.2087880499        1.5151972239        1.0469552199
 C          5.0847364825        0.7419276652        0.4723808262
 C          4.7263781225       -0.2633719628       -0.5110914399
 N          3.4976086374       -0.4707460745       -0.8889748005
 C          2.5676500003        0.3133063485       -0.2825225364
 C          1.2088127200        0.1264538106       -0.5727418986
 C          5.9430477000       -0.9537831312       -0.9139661440
 C          6.2462149401       -1.9803909382       -1.7721307944
 C          7.5879789126       -2.3955873563       -1.8665800469
 C          8.5999105988       -1.8185692742       -1.1368928161
 C          8.3228053357       -0.7587018486       -0.2439091834
 C          9.2264012884       -0.0581208586        0.5872442198
 C          8.7780952796        0.9486561521        1.4089403343
 C          7.4261051184        1.3349756438        1.4752785642
 C          6.5231430765        0.6744221967        0.6810188240
 C          6.9863433256       -0.3589081906       -0.1664992603
 C         -1.6631907013       -0.6315732892       -0.3246370915
 C         -3.0150461303       -0.8870315243       -0.3678991200
 C         -7.3997616964        0.9860729027        0.3449017758
 C         -8.3315243560        1.9535954356        0.0228143305
 H         -8.8574924873        3.5437699540       -1.3121291355
 H         -6.8287844464        3.2772169924       -2.6938988565
 H         -5.1682682140        1.5485657967       -2.1346040915
 H         -7.3447933552       -1.4985656263       -1.0808215271
 H         -8.1585475910       -3.6853062804       -0.2997538427
 H         -7.0313115449       -4.8322716213        1.5744243912
 H         -5.0968550968       -3.7628200041        2.6756812303
 H         -4.2934620312       -1.5704504394        1.9095392415
 H         -4.1588229417        2.2347748466        0.2455268913
 H         -1.7657278284        2.6892423242        0.2731378740
 H          0.0383782768        2.4630360747        1.5583411392
 H          0.9423908134       -0.6120099666       -1.3142411174
 H          5.4824375131       -2.4644153484       -2.3608275435
 H          7.8249467993       -3.2053115267       -2.5420075828
 H          9.6149938080       -2.1743875452       -1.2404202794
 H         10.2740596072       -0.3225242435        0.5740143172
 H          9.4884753948        1.4682030717        2.0361042375
 H          7.1140846957        2.1276361440        2.1370811821
 H         -0.9713784791       -1.4475104610       -0.4693072778
 H         -3.3668279720       -1.8880420472       -0.5692296922
 H         -7.5525209623        0.3429856975        1.1994026905
 H         -9.2168868552        2.0635120201        0.6315993372
  61
  -97.4699837276000       4.447194098520516E-002 !
 C         -8.1883957057        2.7126427980        0.8894218699
 C         -7.2446707018        2.9969914957       -0.0841361318
 C         -6.2693249322        2.0728567207       -0.4056176591
 C         -6.2217640706        0.8459502417        0.2549412371
 N         -5.2341197955       -0.0944574670       -0.0621681458
 C         -5.5474424619       -1.4619105171       -0.0225275341
 C         -6.7607963570       -1.9191936456       -0.5337733757
 C         -7.0680121556       -3.2657775949       -0.4940277762
 C         -6.1730078627       -4.1744815675        0.0465368540
 C         -4.9669243745       -3.7242468680        0.5581385446
 C         -4.6549132068       -2.3791527594        0.5313553614
 C         -3.9189110678        0.2969748728       -0.3021833851
 C         -3.3618376197        1.4074867023        0.3351418892
 C         -2.0283017892        1.7139599064        0.1657042265
 C         -1.2041688347        0.9151780703       -0.6259484573
 C          0.2436830061        1.1238843958       -0.6471468092
 C          0.8257047945        2.4134902849       -0.6682484118
 N          2.1029372446        2.6531827650       -0.5824885678
 C          2.9486667593        1.6188170050       -0.4537670628
 N          4.2596617252        1.9124673754       -0.2897034371
 C          5.0465443991        0.8868686495       -0.1306107666
 C          4.5701931562       -0.4843213834       -0.1469494662
 N          3.3173958598       -0.7915854879       -0.3190124703
 C          2.4805436430        0.2683789368       -0.4645644532
 C          1.1020445587        0.0459200190       -0.5722090956
 C          5.7057710276       -1.3626830734        0.0872662491
 C          5.8844502125       -2.7183759067        0.1982983965
 C          7.1802072848       -3.1988908781        0.4648807300
 C          8.2650738834       -2.3687894022        0.6187167582
 C          8.1153434430       -0.9674379883        0.5104149987
 C          9.1074125039        0.0301352618        0.6463267964
 C          8.7790582476        1.3587939776        0.5176738225
 C          7.4689812594        1.8002620521        0.2513903122
 C          6.4816028582        0.8574689952        0.1137209644
 C          6.8227107266       -0.5096467181        0.2429974617
 C         -1.7795264122       -0.1538780693       -1.3134657318
 C         -3.1157302337       -0.4499566613       -1.1685004625
 C         -7.1730867710        0.5648719455        1.2351294895
 C         -8.1485561230        1.4925296230        1.5440711640
 H         -8.9497800604        3.4367499093        1.1364803614
 H         -7.2725900712        3.9435779029       -0.6034981125
 H         -5.5399474966        2.2920051092       -1.1717546639
 H         -7.4558319593       -1.2119703376       -0.9624984111
 H         -8.0094102160       -3.6090326889       -0.8972853767
 H         -6.4135245735       -5.2264675363        0.0697954170
 H         -4.2662500402       -4.4240226119        0.9894181428
 H         -3.7187366233       -2.0293033954        0.9412553940
 H         -3.9732768781        2.0069802275        0.9931253404
 H         -1.6040631181        2.5502595811        0.7015497861
 H          0.1939157009        3.2872266743       -0.7714719958
 H          0.7393799096       -0.9709109005       -0.5411642410
 H          5.0586386093       -3.4041740083        0.0890563971
 H          7.3199087175       -4.2667895874        0.5545229414
 H          9.2406820591       -2.7842547277        0.8265787422
 H         10.1271311838       -0.2601588543        0.8550871794
 H          9.5553895701        2.1025339082        0.6271512582
 H          7.2535363221        2.8534002582        0.1617429423
 H         -1.1707259546       -0.7490647415       -1.9779187459
 H         -3.5480308230       -1.2799074697       -1.7076928288
 H         -7.1367141400       -0.3816231492        1.7544678480
 H         -8.8772777473        1.2635253262        2.3078145084
  61
  -97.4690140811000       1.593923255400581E-002 !
 C         -8.3177487467        2.6700385698       -0.8228588510
 C         -7.1897567341        2.6450262747       -1.6266696084
 C         -6.1826356715        1.7283634048       -1.3932212121
 C         -6.2894734834        0.8248669456       -0.3369008121
 N         -5.2772468051       -0.1104286139       -0.0874427098
 C         -5.6349116002       -1.3951543359        0.3553806393
 C         -6.7040577716       -2.0666854640       -0.2341021665
 C         -7.0490449958       -3.3342482651        0.1947248552
 C         -6.3345592738       -3.9505117349        1.2087745839
 C         -5.2758427214       -3.2831835525        1.8030389348
 C         -4.9290804010       -2.0126627379        1.3870599872
 C         -3.9315353036        0.2243518205       -0.1951758092
 C         -3.4759940755        1.5245923739        0.0353001506
 C         -2.1273183322        1.8095897496        0.0163527159
 C         -1.1780744967        0.8135502418       -0.2217071724
 C          0.2586000124        1.0537128641       -0.0867658534
 C          0.7496311910        2.0406253388        0.8053304067
 N          2.0038475682        2.2344443334        1.0914026217
 C          2.9257859948        1.4365148209        0.5304727738
 N          4.2064034017        1.6033435601        0.9313843927
 C          5.0658271318        0.7745148619        0.4111560280
 C          4.6960451294       -0.2446550528       -0.5536172775
 N          3.4740478456       -0.4056268147       -0.9732592665
 C          2.5597915657        0.4330638975       -0.4184300559
 C          1.2028229842        0.2774926639       -0.7315114077
 C          5.8877579499       -1.0160762110       -0.8750537282
 C          6.1667671592       -2.0958810977       -1.6740578396
 C          7.4826015297       -2.5958933587       -1.6824660291
 C          8.4922176396       -2.0494769768       -0.9264657152
 C          8.2395105719       -0.9359564883       -0.0934855829
 C          9.1434662466       -0.2571834208        0.7551298448
 C          8.7191057642        0.8080004026        1.5134498689
 C          7.3915390174        1.2759267418        1.4977352234
 C          6.4885441797        0.6383070255        0.6849606088
 C          6.9285820092       -0.4528489992       -0.1003817719
 C         -1.6454981794       -0.4714707017       -0.5097525264
 C         -2.9902328084       -0.7599906246       -0.5089899606
 C         -7.4271931270        0.8535954179        0.4691280611
 C         -8.4321794967        1.7681266693        0.2222646413
 H         -9.1027578255        3.3868218793       -1.0099003792
 H         -7.0968060779        3.3395674418       -2.4485784852
 H         -5.3100650235        1.7019811791       -2.0294410487
 H         -7.2558482027       -1.5893267487       -1.0307270004
 H         -7.8751661965       -3.8482968199       -0.2738987679
 H         -6.6014448068       -4.9440505825        1.5353964051
 H         -4.7193875964       -3.7518203289        2.6013169546
 H         -4.1088550551       -1.4899515373        1.8571213435
 H         -4.1860031310        2.3075101314        0.2569667257
 H         -1.8089974561        2.8256289554        0.1944596492
 H          0.0582729802        2.6864255534        1.3310898780
 H          0.9354225016       -0.4691210486       -1.4641002909
 H          5.4029226249       -2.5591271269       -2.2791575002
 H          7.7002438889       -3.4485593574       -2.3098253176
 H          9.4864186071       -2.4713710444       -0.9622812613
 H         10.1719827857       -0.5847600266        0.8058492008
 H          9.4290416093        1.3093010873        2.1557704371
 H          7.0968951948        2.1101280173        2.1149340335
 H         -0.9438517374       -1.2670169724       -0.7076320264
 H         -3.3241591885       -1.7627999147       -0.7305158109
 H         -7.5132397304        0.1573065187        1.2905574219
 H         -9.3059692991        1.7823414739        0.8569793362
