  61
        -97.87449478
 C         -8.0279517751        3.0303222177        0.0286012573
 C         -6.8539238476        3.1164827355       -0.7015238598
 C         -5.9586484545        2.0646979976       -0.7135282969
 C         -6.2253279776        0.9078756382        0.0178497209
 N         -5.3212730310       -0.1630058940        0.0091730945
 C         -5.8052291294       -1.4773838956       -0.0144325835
 C         -6.9426900874       -1.7975040883       -0.7547701767
 C         -7.4211043868       -3.0932574739       -0.7691479185
 C         -6.7730302269       -4.0888926798       -0.0565434804
 C         -5.6410328828       -3.7764040523        0.6782655783
 C         -5.1598649310       -2.4818907303        0.7062012160
 C         -3.9491888395        0.0804575505        0.0121452784
 C         -3.4202542664        1.1675663177        0.7116496046
 C         -2.0647199241        1.4132691212        0.7045361198
 C         -1.1861267112        0.5774854380        0.0140609722
 C          0.2537507209        0.8356388306        0.0075381028
 C          0.7533274112        2.1605495890       -0.0286744662
 N          2.0142194433        2.4816855778       -0.0385660617
 C          2.9305028382        1.5013834857       -0.0168077360
 N          4.2292700515        1.8793202143       -0.0260091473
 C          5.0944120965        0.9064588349       -0.0091399878
 C          4.7090621655       -0.4926096268        0.0181058232
 N          3.4657866512       -0.8792277360        0.0276445678
 C          2.5493363550        0.1240093354        0.0099492475
 C          1.1819858131       -0.1858328681        0.0248420777
 C          5.9233547089       -1.2951561193        0.0265712584
 C          6.2083144250       -2.6369760054        0.0479703061
 C          7.5596476255       -3.0311138976        0.0456148757
 C          8.5984386574       -2.1311844381        0.0229678216
 C          8.3404540524       -0.7418441211        0.0009797269
 C          9.2738704319        0.3194373336       -0.0242682985
 C          8.8426380020        1.6244345340       -0.0443683218
 C          7.4802480106        1.9785057322       -0.0417114271
 C          6.5482193033        0.9718087431       -0.0175761505
 C          6.9935746991       -0.3705149662        0.0038086309
 C         -1.7182686099       -0.5125207965       -0.6760194110
 C         -3.0739538761       -0.7554819798       -0.6850801432
 C         -7.4065001714        0.8272380832        0.7541118599
 C         -8.2994222896        1.8811526527        0.7529627594
 H         -8.7267923608        3.8528335813        0.0324131392
 H         -6.6369999319        4.0060483867       -1.2743591866
 H         -5.0491296708        2.1292527237       -1.2927041668
 H         -7.4443318757       -1.0245962107       -1.3185531422
 H         -8.3019606662       -3.3284153748       -1.3482224695
 H         -7.1477964648       -5.1009714834       -0.0732201807
 H         -5.1327917256       -4.5449582629        1.2419172275
 H         -4.2836358978       -2.2383171340        1.2891835670
 H         -4.0836448571        1.8134837818        1.2677502126
 H         -1.6760853364        2.2455343168        1.2722973104
 H          0.0634096476        2.9941337589       -0.0713954224
 H          0.8901794294       -1.2247014476        0.0714353029
 H          5.4237556279       -3.3774675677        0.0657835454
 H          7.7825286392       -4.0883748209        0.0621858801
 H          9.6205089969       -2.4816308224        0.0215103185
 H         10.3312241256        0.0965474701       -0.0283300768
 H          9.5760328148        2.4179038276       -0.0639024765
 H          7.1834430364        3.0154337885       -0.0586630924
 H         -1.0615397074       -1.1572490401       -1.2409975318
 H         -3.4699684402       -1.5917582035       -1.2422223295
 H         -7.6156755649       -0.0648372311        1.3262292080
 H         -9.2100980588        1.8072696001        1.3288611359
