44
 energy: -87.657060793030 gnorm: 0.000070492376 xtb: 6.7.1 (edcfbbe)
O           -0.59300280862001        1.13979950340601       -2.69200393678848
C           -1.37059503310901        0.99921051389109       -1.75505982430618
O           -2.46771988921099        1.78677681290147       -1.74005299425607
C           -3.35637626458501        1.73549193565962       -0.72123513191455
C           -4.48598325413082        2.54754580394019       -0.79927752920457
C           -5.40123842392438        2.53758489476223        0.23114684127555
C           -5.20250122688465        1.72772301140518        1.34664066639434
C           -4.08847856008160        0.92509481979888        1.42961557780344
C           -3.14935151690340        0.91438330384972        0.39257403662513
C           -1.97259341086068        0.06568381519816        0.42191131171398
O           -1.81077816684734       -0.65263931342084        1.51668463262775
C           -1.15505037747310        0.06239167219467       -0.68062838303983
C            0.04260000007522       -0.84314150515868       -0.89601502934981
C           -0.21321948129278       -2.28507297417131       -0.57023358814347
C           -1.38966830850629       -2.94643425813224       -0.40214135655469
C           -1.23255249430157       -4.33782169057290       -0.21271083529415
C            0.07112115126233       -4.71057214074666       -0.26104224424597
Br           0.75680950987995       -6.44695960678433       -0.06514518939693
S            1.13769829036969       -3.37648668126821       -0.53806971959214
C            1.29642918387514       -0.32204453768148       -0.21543526976314
C            2.18894121441825        0.49146612093302       -0.86922444534161
O            2.02277084518699        1.00267399287580       -2.07805855005951
C            3.43604655820394        0.81147308502201       -0.20614009988975
C            4.44309595861341        1.56490935799968       -0.81922310564235
C            5.62046633456479        1.81598456904886       -0.15411714173694
C            5.81636812333692        1.32431406354832        1.13439501279525
C            4.83550857800328        0.58515674204122        1.75958693315966
C            3.64074016984010        0.32633942185551        1.09079165552854
O            2.69109717224379       -0.38190153346223        1.74242088226495
C            1.52139514288201       -0.71237335843648        1.15065311640990
O            0.70863329342755       -1.32459461476327        1.83288295753348
H           -4.61749224935643        3.16933438571280       -1.67002345065266
H           -6.27741453474427        3.16471568352435        0.17166281820039
H           -5.92543961314840        1.73105707923690        2.14749123009865
H           -3.91449164912928        0.28877219691388        2.28256484265541
H           -0.90970728815611       -1.07294704688628        1.58773412861860
H            0.23790631532412       -0.81333038295007       -1.97950718115190
H           -2.35372608981595       -2.47143348902485       -0.40933353012672
H           -2.04474443555420       -5.02173985369710       -0.04855640129261
H            1.09019462887596        0.95216854049695       -2.41438235344876
H            4.27020403215960        1.93238434280326       -1.81804882745657
H            6.39611442082905        2.39508483219890       -0.63059065144700
H            6.74298410427048        1.52400920407154        1.65020910798485
H            4.96499804899922        0.19796428187819        2.75729101841318
