44
 energy: -87.558792150262 gnorm: 0.000104746637 xtb: 6.7.1 (edcfbbe)
O           -2.42170599265718        0.56730268698676       -2.53287544102558
C           -2.68000001901206       -0.10796182101612       -1.53416315324735
O           -3.95221912106181       -0.55251313003532       -1.42028890076799
C           -4.33584925175586       -1.34441743179677       -0.38052445839325
C           -5.64099749834146       -1.79742298369798       -0.36239745804570
C           -6.07866239396916       -2.59623662216615        0.68899292619977
C           -5.21069658976543       -2.93128523888434        1.72273850337492
C           -3.91096913879995       -2.48352564857238        1.71539823879106
C           -3.44078470783189       -1.67348775517110        0.65822626552390
C           -2.11054415138792       -1.16896037895086        0.62242859968201
O           -1.32841829900870       -1.45670861496611        1.65061519117791
C           -1.70899385479148       -0.44910488310050       -0.53618107085385
C           -0.29452941583040       -0.03050092568234       -0.86872736270806
C            0.77180859496011       -1.02316794367925       -0.53605131312149
C            0.66876715338946       -2.37494323160999       -0.38589960743598
C            1.90831006640355       -3.01071406579515       -0.17578273983669
C            2.94020530905989       -2.12309759900079       -0.18860534656716
Br           4.75821493959173       -2.51313641824918        0.04236365358544
S            2.42123169917859       -0.49468960589647       -0.45626226040641
C           -0.13015012018482        1.31295666061992       -0.19270671166766
C           -0.34809509160877        2.53515313747839       -0.89625082001710
O           -0.83850977312454        2.61067545667533       -2.12792569923868
C            0.05932321125166        3.74006956955218       -0.26955144307337
C           -0.02624298961315        4.99692070752689       -0.91100572210022
C            0.35261101945301        6.14108509264121       -0.25011049734199
C            0.83097520992602        6.07815090481727        1.05416462720079
C            0.92515168736323        4.85248934606685        1.70837464656216
C            0.54942785225727        3.69668478369471        1.05398758729063
O            0.64666155586321        2.52051119273969        1.73633557077999
C            0.33592015672532        1.33747631580350        1.15601115353996
O            0.51310180952652        0.32910246713664        1.84640009008599
H           -6.29970887676914       -1.52071604445819       -1.16942638210129
H           -7.09568655321665       -2.95475464165864        0.69569320217482
H           -5.55958246623612       -3.54928838315526        2.53575627800876
H           -3.22243021126994       -2.73414610510967        2.50566516599761
H           -0.50939377069277       -0.88434360755861        1.70094676720051
H           -0.25617633818117        0.13053980633960       -1.95650501155308
H           -0.26239183882795       -2.91070436619940       -0.42033432163368
H            2.03093348651648       -4.06683000517209       -0.02157235894807
H           -1.37044019447676        1.81291889957449       -2.39915142925734
H           -0.39575198876909        5.02399667943395       -1.92290042751183
H            0.28129875320101        7.09566320343793       -0.74853910760961
H            1.13477534142776        6.97733365994022        1.56603436570438
H            1.28837161925170        4.78394846282526        2.72088923061377
