44
 energy: -87.657060953519 gnorm: 0.000040482815 xtb: 6.7.1 (edcfbbe)
O           -2.44565549713834        0.49167254507959       -2.54068466492777
C           -2.70946463947053       -0.21166011522105       -1.57218089044266
O           -3.96436611813350       -0.70433929946820       -1.49091394329868
C           -4.36068181176964       -1.44856242981349       -0.43293285798085
C           -5.65939686694286       -1.95336504797013       -0.44035823609529
C           -6.10462769277582       -2.69639215316462        0.63165771454254
C           -5.26931459573949       -2.94136054162001        1.71883667111324
C           -3.98669310437103       -2.44453401887753        1.73199998138162
C           -3.51165241210606       -1.69241001439729        0.65209958478447
C           -2.15976165520736       -1.16662986739801        0.60937859374877
O           -1.42237231093971       -1.39367093199871        1.67966619549832
C           -1.76107677752434       -0.51008545713930       -0.52813484812379
C           -0.36235399902530        0.00273508288425       -0.81385343852394
C            0.72630045131811       -0.98317865778557       -0.50834144626613
C            0.65494219173235       -2.32622917036958       -0.30603472712184
C            1.91767818188580       -2.94151939649559       -0.15313422267527
C            2.93228905167651       -2.04745983592626       -0.26321613262762
Br           4.77052732524825       -2.40445558554535       -0.13274751832207
S            2.37404043342462       -0.43587047455477       -0.55527945842059
C           -0.10026293641123        1.35558826098735       -0.17502461270770
C           -0.33607903135018        2.53006118829538       -0.84643917860058
O           -0.90352738189723        2.63675807637623       -2.03679670644056
C            0.08399746877762        3.76948652621737       -0.22617213872951
C           -0.04273414266402        5.00987729618249       -0.86104590918203
C            0.39587741786278        6.15403123080977       -0.23645828567251
C            0.96650454002192        6.08530139702110        1.03241355123598
C            1.09591235554850        4.87488350893015        1.67850860242563
C            0.65410451330115        3.71184804210677        1.05088126931873
O            0.77405006512171        2.54498872612636        1.72321346662171
C            0.40494140726979        1.36713451785824        1.17179133799832
O            0.51558977519525        0.36836122452230        1.87249610781765
H           -6.28983075496957       -1.74796839691100       -1.29034356439086
H           -7.10985233102290       -3.08883677353947        0.62719313609639
H           -5.63093228334022       -3.52248430919502        2.55282385114438
H           -3.32181570132329       -2.62246079068876        2.56204333873713
H           -0.57855664287013       -0.86369859572749        1.70192016014038
H           -0.32630824077278        0.15720604964034       -1.90370374469281
H           -0.26488844936433       -2.88047209601799       -0.26330778328941
H            2.06168369345092       -3.99042405573694        0.02969650081404
H           -1.37264603233809        1.81519421886187       -2.33708196858920
H           -0.48493600836940        5.03809307112639       -1.84401745259777
H            0.29861409245505        7.10872439443722       -0.72951685882959
H            1.30942438678137        6.98675843084709        1.51649054560340
H            1.53134879755717        4.79943142230516        2.66176343607252
