96
 energy: -158.896380715466 gnorm: 0.000083342483 xtb: 6.7.1 (edcfbbe)
C            7.29498660276848       -4.69813279538470       -0.37744972835822
C            7.96604315829078       -3.48469085586945       -0.37394679906141
C            7.25908845488916       -2.30091391935461       -0.28937256909534
C            5.86651448851906       -2.32015804673447       -0.20877794699201
C            5.11722124049932       -1.07068231421187       -0.11024887073828
N            5.81216541379502        0.07705975934983        0.00520876731146
C            5.09005755178451        1.20899238260704        0.11384424795388
C            5.81169586451782        2.47445466280113        0.21503750149848
C            7.20438688575679        2.48487621433189        0.29699263004764
C            7.88604445091681        3.68313891484925        0.38452197274608
C            7.18956919795432        4.88213443525776        0.38985295732433
C            5.80451886281628        4.87923480794202        0.30838475456769
C            5.11713551057034        3.68501728672926        0.22219692004841
N            3.78208124090061        1.22547039600675        0.13054203639034
C            3.12153205603139        0.04687258947196       -0.00219542272278
C            1.70612132619314        0.02852735170003       -0.00352864724399
C            0.96252318657196        1.20019842307038        0.25473293900158
C           -0.41245986303909        1.17940128315972        0.26654004352518
N           -1.12178764124855        2.36275679543049        0.55005672683976
C           -2.13968406377335        2.50658947185962        1.47449539332635
C           -2.53723051065209        1.64097540236966        2.48354873283731
C           -3.59007189360562        2.03069888143073        3.28926118686623
C           -4.22608417783023        3.25841636911797        3.11347879011459
C           -3.80272504024528        4.14746846986274        2.14484227068089
C           -2.74600833805911        3.77442705479804        1.32403055490318
C           -2.03068201348286        4.43609924799079        0.27071291500587
N           -2.19481129436602        5.63681095818061       -0.25667075364765
C           -1.38330168546491        5.98844839376087       -1.23487908846613
C           -0.38288397241308        5.16215607204288       -1.74698556510906
C           -0.18494998833851        3.90176569380556       -1.20795240493736
C           -1.02417448678190        3.52990271454655       -0.16802076720076
C           -1.12112750112646       -0.01382987447438       -0.00309222718467
N           -2.52522622470791       -0.03200978397476       -0.01939100422735
C           -3.33588886963526        0.76588570838086       -0.80633024898362
C           -2.98054004959468        1.67332527279717       -1.79474957588561
C           -3.99507453287875        2.34384204092756       -2.45005360853294
C           -5.33569558909020        2.11094573735881       -2.14645222373399
C           -5.69863363686776        1.17970706034274       -1.19374704652780
C           -4.69334827638376        0.49565745496497       -0.52141160357017
C           -4.69451812932980       -0.53515390639069        0.47478418604889
N           -5.70086414129757       -1.14965328327104        1.07334430922098
C           -5.40417268265403       -2.06064510598657        1.97908989965864
C           -4.10062546580156       -2.38281593504469        2.35714573054952
C           -3.03029007773899       -1.75449343468586        1.74475403095678
C           -3.33129950003287       -0.82667772063751        0.75927637172528
C           -0.37793241287229       -1.18689338749994       -0.26401064008687
N           -1.05402114688843       -2.39382620829646       -0.53570247336876
C           -0.91575202747618       -3.56394263567507        0.19017105136962
C           -0.05264976187842       -3.85179867563304        1.23917193462395
C           -0.13400402041237       -5.10660122705114        1.81279552603582
C           -1.05286282669999       -6.05578702482340        1.36594691661257
C           -1.92332189207931       -5.77248536418355        0.33224058138738
C           -1.85824715047354       -4.51687472283765       -0.26000430252621
C           -2.59019557835693       -3.88603203852576       -1.32024240408791
N           -3.57481330680981       -4.34460035165293       -2.07466566007244
C           -4.04919471857863       -3.54105566536749       -3.00678039390452
C           -3.55237323623434       -2.26166523043862       -3.25373837007556
C           -2.51668348621645       -1.76248535071245       -2.48242147745570
C           -2.04692446530754       -2.57892766937098       -1.46528346579617
C            0.99597793479519       -1.16606342547811       -0.25959217408295
N            3.81033073027858       -1.11564324129387       -0.13415527493756
C            5.19748182683596       -3.54503532929288       -0.21378982213121
C            5.91016076557876       -4.72456819013050       -0.29701115355978
H            7.84982958061318       -5.62229183284627       -0.44172978129598
H            9.04410363957921       -3.46298661446489       -0.43678118296439
H            7.76591284926489       -1.34802772862012       -0.28600952432347
H            7.73132556867688        1.54301844047593        0.29249353743403
H            8.96424697023800        3.68394953851016        0.44849941918673
H            7.72454841113612        5.81772155813768        0.45671152974139
H            5.26098760820762        5.81267604332586        0.31193265350953
H            4.03980438116065        3.66696035422058        0.15653616514950
H            1.49417106602734        2.10992651079351        0.48284193600862
H           -2.03001981222791        0.70263305566848        2.64626210691000
H           -3.92227762191081        1.37002304144262        4.07603264588250
H           -5.05053611181335        3.52082103108606        3.75841470073864
H           -4.26768255112346        5.11241557391158        2.02011383505502
H           -1.53604520956269        6.98230827708378       -1.63221106931004
H            0.23998342659011        5.51348031239501       -2.55419767222035
H            0.58904829447477        3.24518440664212       -1.57858026281138
H           -1.94634515381234        1.84191975470723       -2.05558941405564
H           -3.74140792309274        3.06051136798401       -3.21686411729693
H           -6.09809085568650        2.66036944403262       -2.67702515091532
H           -6.73307162782147        0.97381724639517       -0.96875576932091
H           -6.24979307118585       -2.55506824264188        2.43656688964309
H           -3.93065973967549       -3.12268734161849        3.12279842695836
H           -2.01364791109392       -1.98007097610346        2.03137093637291
H            0.65702941541505       -3.11987980352551        1.59525298166021
H            0.52967874960073       -5.35566338786467        2.62731097485027
H           -1.08297752770445       -7.02397537766731        1.84200972351095
H           -2.64360167942361       -6.49522923383510       -0.01701767751604
H           -4.85675249834604       -3.94442223052177       -3.60174703264719
H           -3.96936576097540       -1.66940491215675       -4.05243271412406
H           -2.09016562397729       -0.79045014492330       -2.67895279915555
H            1.55336191323723       -2.06062754087009       -0.48567501270955
H            4.11998497947526       -3.54981935994450       -0.14812861957648
H            5.38630560082059       -5.66916105307653       -0.29869759994247
