96
 energy: -158.973796910477 gnorm: 0.000056766372 xtb: 6.7.1 (edcfbbe)
C            7.18965248485014       -4.64653539030267       -0.16078509922856
C            7.85842011164526       -3.43284395239793       -0.21907523567886
C            7.14877748467745       -2.24817995180567       -0.18182496498724
C            5.75717056215598       -2.26981584996019       -0.08728748743490
C            5.00324521825981       -1.01911039833727       -0.04940907432586
N            5.68067720298229        0.12525910787278       -0.01870105103802
C            4.95663968390445        1.24052291958368        0.01400779833996
C            5.65998877475666        2.52073847435460        0.04639091978673
C            7.05166864385153        2.55451155886856        0.13530170118011
C            7.71436889179541        3.76624808924845        0.16524481647409
C            6.99822716094737        4.95248032102565        0.10528966523890
C            5.61440967096499        4.92574290051822        0.01643161364973
C            4.94535960817044        3.71747786275845       -0.01202367261906
N            3.62277987258201        1.25861030666490        0.01723641162561
C            3.03050322114691        0.07061081414180       -0.01305209439716
C            1.56531146701772        0.03877977828331       -0.00894919710607
C            0.84145511614725        1.19890408476499        0.24067097747462
C           -0.54539562413258        1.17795212731603        0.24626308505667
N           -1.24801742165488        2.36263643162132        0.50328614786795
C           -2.28856871500567        2.53177154177044        1.40347491948665
C           -2.72520498635505        1.68252088703454        2.40856727905887
C           -3.78861484445506        2.09887239082919        3.18706086662960
C           -4.39360637450409        3.33852543100105        2.98981761914678
C           -3.92689866959264        4.21214805270540        2.02821329133753
C           -2.85910087455914        3.81222931347510        1.23480338488745
C           -2.10799751566818        4.45523050552293        0.19317051671890
N           -2.24892179652856        5.66141071723780       -0.33637523604945
C           -1.40519905271085        5.98493295300777       -1.29973731801709
C           -0.40621120799031        5.14218010877766       -1.78499923745139
C           -0.24732230857617        3.87552879550225       -1.24564231923339
C           -1.11492208239618        3.52934388044186       -0.22213121909891
C           -1.23378962530729       -0.02299846396104       -0.01005482378758
N           -2.63234423088240       -0.05175744269543       -0.02185634581771
C           -3.45447644449542        0.74804346812062       -0.80250948625692
C           -3.11080202176373        1.66065277238954       -1.78810339917522
C           -4.13485843893992        2.31992898681299       -2.44158352306639
C           -5.47127113835157        2.06468236270713       -2.14230666356822
C           -5.82024515618779        1.12125795429957       -1.19657969350543
C           -4.80553931993140        0.45143418469124       -0.52504917276418
C           -4.79587232632370       -0.58862086679244        0.46512970942602
N           -5.80696177474668       -1.20880319928202        1.05420253578627
C           -5.49398765346315       -2.12439180750070        1.95339637778665
C           -4.19013704327975       -2.43987336950748        2.33058566111266
C           -3.12193884488532       -1.79401156691345        1.73015046188987
C           -3.43441386629475       -0.86816753322690        0.74857834036270
C           -0.49302592172545       -1.19400594241789       -0.25469090807474
N           -1.14369806319347       -2.41010801329054       -0.50396168315306
C           -0.94856123350522       -3.57859574132847        0.22119919157803
C           -0.05472506847930       -3.83671826005895        1.25032452074938
C           -0.08571462873291       -5.09191191114527        1.82953045270782
C           -0.98675563179690       -6.06817590196786        1.40781176883092
C           -1.89074391014712       -5.81134521816453        0.39665915370155
C           -1.87455348467836       -4.55713972822672       -0.20164046137106
C           -2.65788491481315       -3.95073848788147       -1.24140728614183
N           -3.64751690577435       -4.45608754388765       -1.96283091766961
C           -4.16924047385807       -3.66525839051295       -2.88313594112791
C           -3.71529273328954       -2.37636948129668       -3.15813702199948
C           -2.67766500205055       -1.83594387135653       -2.41654321658941
C           -2.16505881244189       -2.62946837619642       -1.40334818014069
C            0.89350475272759       -1.15335165609770       -0.25224715721480
N            3.67140035043636       -1.09149701506445       -0.04718166398756
C            5.09028870117985       -3.49394923352693       -0.02954838292976
C            5.80627386194802       -4.67477167264212       -0.06562288078293
H            7.74680396233540       -5.57105922394580       -0.18953465908836
H            8.93540162206170       -3.41215663885372       -0.29382923911049
H            7.65147654205042       -1.29483634133286       -0.22810598385657
H            7.59171885348616        1.62190193606194        0.18263960227756
H            8.79162372981873        3.78785489033678        0.23540166979737
H            7.51855513056072        5.89838596284176        0.12783149750560
H            5.05708845801040        5.84952637714612       -0.03004758399313
H            3.86936629221947        3.67938759212214       -0.08191719571094
H            1.36944868055628        2.11311565792019        0.45911980551098
H           -2.24437411469589        0.73365903586531        2.59115697918888
H           -4.15344377280205        1.44851353254930        3.96808260165863
H           -5.22635624874551        3.62250101536267        3.61471564922135
H           -4.36381854667882        5.18793816666612        1.88774654456102
H           -1.53643369423275        6.97548131007046       -1.71409703513518
H            0.23856813536636        5.47757718533714       -2.58211166367996
H            0.51047431048774        3.19739937774115       -1.61236751954614
H           -2.08012119999545        1.84617938171004       -2.05159728973346
H           -3.88917888748126        3.04484356422218       -3.20324622833635
H           -6.24128959217847        2.60377448261603       -2.67242187797756
H           -6.85084569587580        0.89267645151812       -0.97642775292928
H           -6.33497034367930       -2.62617417028907        2.41240794798493
H           -4.01393259118256       -3.18194242285363        3.09303046273864
H           -2.10492525253137       -2.00465898092477        2.02755229784633
H            0.63879494554945       -3.08384972316881        1.59467859244605
H            0.60335859433733       -5.31750893816145        2.62966831049697
H           -0.97706288880988       -7.03556721801110        1.88630142195455
H           -2.60140532932518       -6.55262706844396        0.06749495382172
H           -4.98537586012855       -4.09273211225971       -3.44968075656521
H           -4.16803674292722       -1.80381337212575       -3.95205594508735
H           -2.28912056096385       -0.85198266694666       -2.63273503925713
H            1.46104307362511       -2.04411209293133       -0.46802972684749
H            4.01404462342657       -3.49851546533240        0.04579507063007
H            5.28586166965289       -5.61980133012188       -0.01988108290709
