96
 energy: -158.896392359907 gnorm: 0.000042547671 xtb: 6.7.1 (edcfbbe)
C            7.28462288965202       -4.72256575261557       -0.40079181576549
C            7.95799798546092       -3.51046192464145       -0.39016711961891
C            7.25370398552830       -2.32617023506198       -0.29160613426322
C            5.86151151378560       -2.34352880344696       -0.20392952708713
C            5.11504335905755       -1.09307080677645       -0.09605922270433
N            5.81317381990482        0.05287094187668        0.01795974157907
C            5.09410320510017        1.18670008506405        0.12655736107834
C            5.81924528619755        2.44958842161930        0.23546101786462
C            7.21172891689953        2.45533074031383        0.32120531378636
C            7.89663915990724        3.65089096772754        0.41985307014639
C            7.20357851125060        4.85180023760209        0.43283115437721
C            5.81876884499236        4.85356409368672        0.34743104213620
C            5.12815417055855        3.66204882594421        0.25001210914136
N            3.78620696185211        1.20712205635822        0.13808003410855
C            3.12213015075698        0.02967449257814        0.01187826155029
C            1.70681752769488        0.01642713055922        0.00855863388438
C            0.96774556000943        1.20043357980765        0.21955495407331
C           -0.40734219113222        1.18761701745556        0.22233560069458
N           -1.11042456004296        2.38761922785088        0.44474471607618
C           -2.13641264442230        2.58384350163879        1.35023233085232
C           -2.55207728790442        1.77078529935944        2.39504563930540
C           -3.61069979341348        2.20678651661411        3.16886118084227
C           -4.23433476956770        3.42973403705528        2.92749228108157
C           -3.79277440111933        4.26813267912959        1.92248802937400
C           -2.73047717586844        3.84776757057476        1.13239741567397
C           -1.99930549867528        4.45203316414833        0.05576241188922
N           -2.14816917986334        5.62686143601381       -0.53110645839844
C           -1.32428331785396        5.92393712772497       -1.51702877661013
C           -0.32667687899751        5.06528934370687       -1.97899884336805
C           -0.14477163574483        3.83104095881678       -1.37744308860456
C           -0.99638257495388        3.51760022304629       -0.32838085232686
C           -1.12094164540268       -0.01213280706152       -0.00077275781982
N           -2.52511995519642       -0.02433354745257       -0.02260746714715
C           -3.32851225305695        0.73931684988404       -0.84987931451703
C           -2.96454185583049        1.60011130623688       -1.87617983761390
C           -3.97313924593477        2.24331086835825       -2.56704627289863
C           -5.31630393973457        2.02793564527496       -2.26161730722737
C           -5.68768924585309        1.14187499406223       -1.26986809668435
C           -4.68845933577514        0.48654004155448       -0.56090631735283
C           -4.69881609216658       -0.49676898357790        0.48209687266151
N           -5.71065621373727       -1.07915227745839        1.10306974248767
C           -5.42221988478436       -1.94737459559064        2.05241405169312
C           -4.12195159024745       -2.25649758560507        2.45198277829485
C           -3.04595108327496       -1.66161746841718        1.81651537839231
C           -3.33827049037843       -0.77945618017093        0.78742428380269
C           -0.38246626641451       -1.19846083286981       -0.21019332722441
N           -1.06351781921333       -2.41334495849538       -0.42994639866507
C           -0.93622650256720       -3.54815789227706        0.35204422116931
C           -0.07677067607272       -3.79258253454820        1.41496033107915
C           -0.17208528405642       -5.01608946317287        2.05074982147019
C           -1.10060002287344       -5.97671051554358        1.65081291531939
C           -1.96619705681956       -5.73677465136758        0.60216212410031
C           -1.88714680067263       -4.51324693399773       -0.05222165691846
C           -2.61240678917573       -3.92835822036840       -1.14293861622458
N           -3.60056805978983       -4.41430307355999       -1.87532882440854
C           -4.06845226841939       -3.65179951257997       -2.84450960591361
C           -3.56159991801158       -2.38939011620976       -3.15117253021260
C           -2.52109932006002       -1.86314142847524       -2.40474381306565
C           -2.05778915586594       -2.63445518340184       -1.35013916024870
C            0.99152595074668       -1.18360314667394       -0.20434615763644
N            3.80795769059218       -1.13539542801560       -0.11320849378511
C            5.19018789407315       -3.56705771658365       -0.21559281118682
C            5.90020401054190       -4.74715279617187       -0.31286882379858
H            7.83726383593005       -5.64713650054819       -0.47688012176349
H            9.03571101722289       -3.49015327262721       -0.45899603964085
H            7.76233337841563       -1.37429095521730       -0.28328288117901
H            7.73593384145599        1.51199563497192        0.31120970607172
H            8.97464281547024        3.64805652567971        0.48703598627207
H            7.74099876569256        5.78527426735622        0.50904102878490
H            5.27787169970143        5.78849079816656        0.35715620597529
H            4.05092153825061        3.64765943942427        0.18175323684200
H            1.50298587059807        2.11588621197333        0.41366886364513
H           -2.05440501065632        0.83741373013043        2.60806776444192
H           -3.95763159324933        1.58668204946874        3.98183836725110
H           -5.06365812528503        3.72914466045952        3.54964918350378
H           -4.24782527763845        5.22982784103073        1.74654251584861
H           -1.46489018923788        6.89840529286818       -1.96381183183912
H            0.30654999013524        5.37158303114956       -2.79639285554496
H            0.62662657056411        3.15048801421202       -1.70834381962960
H           -1.92830953254375        1.75379163203323       -2.13818688867781
H           -3.71253716310055        2.92428029238213       -3.36350621771822
H           -6.07375844117391        2.55492150748793       -2.82123768647884
H           -6.72401946680430        0.94903009618548       -1.04199719587708
H           -6.27217886910159       -2.41650498675987        2.52817809031642
H           -3.95912004021578       -2.96035254302740        3.25234688098581
H           -2.03159071141889       -1.87742789039301        2.11845802479748
H            0.64077167469669       -3.05166734311203        1.73475489735448
H            0.48835919728018       -5.23110617966677        2.87749338602521
H           -1.14191494563980       -6.91905751277789        2.17538351048204
H           -2.69377290949184       -6.46833493963571        0.28822869728227
H           -4.87913038426396       -4.07632727466812       -3.42019313207635
H           -3.97473464385124       -1.83145689689070       -3.97609766202727
H           -2.08643328767991       -0.90513233309879       -2.64703350418797
H            1.54511275724985       -2.08912913370517       -0.39289938496433
H            4.11303908653881       -3.57040597919520       -0.14456303424687
H            5.37456860147311       -5.69071430341831       -0.32012411969027
