96
 energy: -158.973774480346 gnorm: 0.000062851043 xtb: 6.7.1 (edcfbbe)
C            7.25311506176577       -4.70956287324396        0.17779452822163
C            7.93665741289367       -3.50388049856860        0.12511620273782
C            7.23831306262667       -2.31288074771259        0.07775734078295
C            5.84337449716111       -2.31975938550401        0.08248731621962
C            5.10083506826387       -1.06258167414328        0.03474081646807
N            5.78788528654014        0.07602838055138        0.00318900497035
C            5.07382571572530        1.19776275177306       -0.02767906608646
C            5.78791160988670        2.47166367851660       -0.07289529477823
C            7.18260229086601        2.49486593573782       -0.08421100130859
C            7.85484697292895        3.70086074421529       -0.12968746490506
C            7.14529624411782        4.89202135101808       -0.16441536882125
C            5.75854178791735        4.87594461031849       -0.15311209110681
C            5.08015369465404        3.67344978253269       -0.10756665978783
N            3.73999108087757        1.22762564145428       -0.02044849483640
C            3.13811556771181        0.04450261381946        0.00210746667028
C            1.67258428220570        0.02523516948185        0.00124052348370
C            0.95851461800940        1.18553079632999        0.27601952733504
C           -0.42851269578391        1.17511578306783        0.28380898043069
N           -1.12301226904839        2.35562425511799        0.57939190233627
C           -2.15741501290503        2.50046035780000        1.49096772475718
C           -2.59272391908249        1.62063118097015        2.47000694983492
C           -3.64805178800287        2.01710080204218        3.26956221260854
C           -4.24645605976065        3.26636070564280        3.11824816476109
C           -3.78110751381599        4.16861497376676        2.18278856408713
C           -2.72116483047760        3.78912983073497        1.36900929024437
C           -1.97185654565443        4.46254747506662        0.34544599143025
N           -2.10818901430065        5.68704665445585       -0.14156304694005
C           -1.26701510036186        6.03880722212859       -1.09724335802667
C           -0.27463237286567        5.20790335347217       -1.61533140499972
C           -0.12083953744815        3.92245451992374       -1.12080615506844
C           -0.98629733426503        3.54568055701459       -0.10631527065907
C           -1.12630042639839       -0.01301935589453       -0.00490806811668
N           -2.52503294902340       -0.02974565099069       -0.01853029802516
C           -3.33938031955592        0.80106031073680       -0.77455470568754
C           -2.98666180979204        1.73925077942017       -1.73253283669776
C           -4.00409620091074        2.42807932108818       -2.36556982019598
C           -5.34293458246708        2.17744262477701       -2.07336566742700
C           -5.70123807439771        1.20966455951936       -1.15615297466265
C           -4.69328727537370        0.50970611920152       -0.50550232833777
C           -4.69374794661469       -0.55997153832351        0.45271699434178
N           -5.71079088357534       -1.18816209747486        1.02276146546149
C           -5.40677237197108       -2.13417966354362        1.89311685077424
C           -4.10604410048928       -2.47316425950106        2.26063077483734
C           -3.03169825012497       -1.81901619628650        1.68045815310143
C           -3.33505705491525       -0.86106804720141        0.72727794982610
C           -0.39517459823684       -1.18333247178306       -0.27952791036720
N           -1.05637815001359       -2.38542431240892       -0.56599470137666
C           -0.87482287675667       -3.57723293325275        0.12363308578277
C            0.00939568324753       -3.87328751689434        1.15084503977919
C           -0.03485795252316       -5.14543552922479        1.69084464571870
C           -0.94001299197103       -6.10141278749477        1.23292199239458
C           -1.83475763049741       -5.80690731418071        0.22381193966481
C           -1.80479282247346       -4.53522818703458       -0.33586844532394
C           -2.57581957335075       -3.89117209743070       -1.36211665786046
N           -3.56268895546520       -4.36697361174197       -2.10706934438724
C           -4.07168787396047       -3.54409180419746       -3.00613815845967
C           -3.60775390830129       -2.25000808691950       -3.23637027379800
C           -2.57282247716023       -1.74007042625355       -2.46982557914160
C           -2.07274098962306       -2.56895956421760       -1.47893106445031
C            0.99175480363149       -1.15542752260702       -0.27030541070010
N            3.76824814819404       -1.12349413420128        0.02608078176542
C            5.16174185384921       -3.53600649607869        0.13567789576827
C            5.86630259321225       -4.72324432476603        0.18334075061198
H            7.80147663387460       -5.63904406143251        0.21466660698255
H            9.01638221646466       -3.49425166337377        0.12110713861760
H            7.75314365050385       -1.36588124532435        0.03666632363857
H            7.71785678133804        1.55876286751529       -0.05707956268640
H            8.93448694327230        3.71419217240856       -0.13832464955703
H            7.67309192266701        5.83337532947474       -0.20001924077491
H            5.20614910069937        5.80347208104917       -0.17970034095451
H            4.00175804201734        3.64363670222030       -0.09862204982488
H            1.49368564426509        2.09030849118049        0.51556594659069
H           -2.11664990914436        0.66330468470759        2.61750154319013
H           -4.01151347463924        1.34316483512281        4.03098076437827
H           -5.07280927283785        3.53451405365660        3.75844682103114
H           -4.21303753676318        5.15110183397139        2.07821654151239
H           -1.39459211271481        7.04370359080386       -1.47676687930304
H            0.36901248990146        5.56709383271778       -2.40295110165615
H            0.63178242924664        3.25359208346629       -1.51391780435276
H           -1.95415491374460        1.92213290612222       -1.99068490759800
H           -3.75136622917337        3.17305224747165       -3.10524785073186
H           -6.10758943549129        2.73988813359497       -2.58671861977463
H           -6.73405408444155        0.98493047225553       -0.94263602709013
H           -6.25261010798302       -2.64211390748449        2.33612618767704
H           -3.93676049803722       -3.23992100958766        2.99987430299838
H           -2.01686757333489       -2.04764784672566        1.97184936182455
H            0.70511331839322       -3.13601872627022        1.52339116158084
H            0.64667381335189       -5.40061415769258        2.48854307873400
H           -0.94120278508148       -7.08305044305439        1.68157742064376
H           -2.54870426027459       -6.53229606921756       -0.13255025630486
H           -4.88536684355988       -3.94838078394280       -3.59291173784334
H           -4.05053896374714       -1.64988174765192       -4.01540876676059
H           -2.17688264480818       -0.75203956283809       -2.65131895793309
H            1.55202874226459       -2.04617548171766       -0.50456571555411
H            4.08296374976623       -3.52935248690824        0.14024862995445
H            5.33409413563619       -5.66189251004964        0.22453754189269
