  55
        -80.46972980
 C          3.0544027848       -3.4402288505        1.3587383758
 C          2.1718388165       -3.6264760884        0.1163594158
 C          3.0283423248       -3.5084435950       -1.1523656838
 C          1.5767295008       -5.0359768565        0.1601978855
 C          1.1064493133       -2.5411243469        0.0990848252
 C         -0.2514087953       -2.8268252315        0.1390982709
 C         -1.1795890057       -1.7934262546        0.1125888434
 C         -0.7957501686       -0.4473687372        0.0576709432
 C          0.5846492786       -0.1706215916        0.0286093286
 C          1.5094249930       -1.2126009976        0.0428404453
 N          1.0019138386        1.1428669598       -0.0192432721
 C          2.4051406058        1.3757511762       -0.1308326455
 C          2.9958863948        1.4325123477       -1.3861144688
 C          4.3606123689        1.6349722691       -1.4952302662
 C          5.1354499986        1.7798862689       -0.3564911728
 C          4.5454213189        1.7224524419        0.8956843661
 C          3.1819515720        1.5194196263        1.0122865264
 C          0.1549371484        2.2308441348        0.0900633450
 C          0.7201471036        3.5146845667        0.1248577926
 C         -0.0668105920        4.6292073354        0.2929867508
 C         -1.4412204578        4.4941322876        0.4464845390
 C         -2.0046447239        3.2406028678        0.3828628244
 C         -1.2504925411        2.0783055765        0.1736630867
 B         -1.8372312847        0.6578243439        0.0411774218
 C         -3.2927692127        0.1408391891       -0.1059673132
 C         -4.4394370511        0.9082135069       -0.3516649503
 C         -5.6984839005        0.3555534688       -0.4325408691
 C         -5.8655751215       -1.0146634151       -0.2702293188
 C         -4.7649644784       -1.8141076087       -0.0658455490
 C         -3.4883465953       -1.2491980280       -0.0024126318
 O         -2.4861733493       -2.1557755210        0.1530030597
 H          3.8147346594       -4.2174797919        1.3977939384
 H          2.4493403707       -3.5027954520        2.2608449066
 H          3.5539904100       -2.4752052264        1.3493324976
 H          3.5399222952       -2.5509700694       -1.1990046714
 H          3.7786357461       -4.2961232658       -1.1717914328
 H          2.4030366160       -3.6048541038       -2.0374767302
 H          2.3806889010       -5.7694044802        0.1666964852
 H          0.9561467964       -5.2245149612       -0.7123341729
 H          0.9823013330       -5.1811911391        1.0587897523
 H         -0.6259391165       -3.8345781906        0.1842480577
 H          2.5615597167       -0.9795687234        0.0171694505
 H          2.3810294187        1.3147807888       -2.2660083735
 H          4.8196206006        1.6787782202       -2.4715922301
 H          6.2000213118        1.9368332151       -0.4443629045
 H          5.1489042675        1.8335943305        1.7841728757
 H          2.7097672376        1.4703434782        1.9823476439
 H          1.7889612435        3.6349951155        0.0285806452
 H          0.3910017308        5.6074900897        0.3196553158
 H         -2.0576282852        5.3658332636        0.6100807201
 H         -3.0698670574        3.1433050753        0.5190925899
 H         -4.3294352160        1.9703435145       -0.5039798646
 H         -6.5562872262        0.9841740108       -0.6224083938
 H         -6.8511356009       -1.4535664286       -0.3198935199
 H         -4.8581176271       -2.8846805757        0.0364433891
