  58
        -98.13461067
 C          6.0797338410       -3.8626540185        0.9231391020
 C          5.1776235431       -4.8996259113        1.1173368393
 N          3.8664183776       -4.7417571969        1.0436466973
 C          3.3936238635       -3.5421869513        0.7739736080
 C          4.2031417099       -2.4259679159        0.5620752233
 C          3.6181459879       -1.1156168207        0.2658235143
 N          2.3021104342       -1.0167108683        0.2500199690
 C          1.7259002956        0.1865401151       -0.0259259530
 C          0.2777418423        0.2184689760       -0.0314456713
 C         -0.4681494311        1.3588963764       -0.3633490310
 C         -1.8445691247        1.3293311460       -0.3602132904
 C         -2.5213413465        0.1593086716       -0.0241346903
 N         -3.9403427842        0.1314077614       -0.0287140102
 C         -4.6601560187        0.8201394047        0.9361500498
 C         -4.0363798248        1.5338560621        1.9560991928
 C         -4.7864378797        2.2116161451        2.9007521129
 C         -6.1692167683        2.1848993884        2.8501501143
 C         -6.8071686937        1.4639502535        1.8537515611
 C         -6.0645834660        0.7821819638        0.9053298292
 O         -6.7531812153        0.0737645007       -0.0408597569
 C         -6.0280056839       -0.6071745272       -0.9800867713
 C         -6.7340106114       -1.3187602814       -1.9345393825
 C         -6.0585883902       -2.0138341268       -2.9245654234
 C         -4.6754360550       -1.9853016457       -2.9623724472
 C         -3.9617767115       -1.2773810247       -2.0117081128
 C         -4.6230447472       -0.5883263576       -0.9984043157
 C         -1.7978717847       -0.9837272824        0.3110584094
 C         -0.4240288600       -0.9517997465        0.3049093171
 C          2.5299282256        1.2855845791       -0.2812249035
 C          3.9227918242        1.1219499136       -0.2483887520
 C          4.8427106801        2.1785526168       -0.4939233399
 C          6.2401574560        1.9346740202       -0.4580699979
 N          7.1260683320        2.8621010419       -0.6767190512
 C          6.7120598327        4.0961323271       -0.9463373886
 N          5.4333315138        4.4424151597       -1.0058891990
 C          4.5235086437        3.5267737424       -0.7894218986
 N          4.4354360984       -0.1123977806        0.0328412962
 C          5.5823565139       -2.6035987305        0.6407716904
 H          7.1420506206       -4.0396277573        0.9923456469
 H          5.5155371163       -5.9029481761        1.3417355579
 H          2.3179099338       -3.4466973880        0.7187908253
 H          0.0264029137        2.2775920031       -0.6360803167
 H         -2.4106235502        2.2114292805       -0.6232303284
 H         -2.9592887357        1.5489366137        2.0065114108
 H         -4.2821653074        2.7602136348        3.6808470809
 H         -6.7539130532        2.7147680589        3.5850591707
 H         -7.8824855015        1.4132574327        1.7951878828
 H         -7.8109920356       -1.3121323427       -1.8851349567
 H         -6.6147601808       -2.5673930319       -3.6641165006
 H         -4.1421803210       -2.5137943657       -3.7370458469
 H         -2.8845080623       -1.2508193875       -2.0520615531
 H         -2.3263512663       -1.8880746219        0.5757320037
 H          0.1465684971       -1.8290466622        0.5642603863
 H          2.1074000443        2.2518080175       -0.4982771955
 H          6.5886049655        0.9330588421       -0.2406601427
 H          7.4554356656        4.8559418590       -1.1262495303
 H          3.4989296621        3.8692459922       -0.8502068312
 H          6.2338552368       -1.7575958648        0.4813736106
  58
        -98.13458512
 C          6.0788830292       -3.9008572932       -0.7411730282
 C          5.1850175814       -4.9013264906       -1.0971271487
 N          3.8797162741       -4.7078952319       -1.1861268896
 C          3.4044544806       -3.5077819834       -0.9229664897
 C          4.2057451523       -2.4276327391       -0.5526358323
 C          3.6185237974       -1.1155242127       -0.2689394820
 N          2.3023147441       -1.0161574751       -0.2659348487
 C          1.7250205175        0.1891196752       -0.0018761944
 C          0.2765920445        0.2198334844        0.0014259859
 C         -0.4234760279       -0.9920673920       -0.1246395881
 C         -1.7973669216       -1.0263545115       -0.1189899696
 C         -2.5216697245        0.1569879940        0.0125717095
 N         -3.9408316094        0.1300824773        0.0270971496
 C         -4.6633106004        0.6277342689       -1.0470909973
 C         -4.0419839050        1.1235951319       -2.1902181788
 C         -4.7943104136        1.6138479581       -3.2428088797
 C         -6.1767965514        1.6137237901       -3.1775667953
 C         -6.8124299512        1.1069517955       -2.0556638016
 C         -6.0675827671        0.6125177650       -0.9990280728
 O         -6.7537830583        0.1083126892        0.0716793167
 C         -6.0261405542       -0.4049447912        1.1103503304
 C         -6.7299236105       -0.9288724109        2.1808080618
 C         -6.0519274362       -1.4469261444        3.2723764288
 C         -4.6682880819       -1.4287091785        3.2934652226
 C         -3.9567965660       -0.9071643029        2.2275603164
 C         -4.6208537310       -0.3992987081        1.1140918970
 C         -1.8462397926        1.3693306973        0.1302673849
 C         -0.4697325808        1.4006922473        0.1240194966
 C          2.5266065368        1.2880501223        0.2605918468
 C          3.9199806646        1.1239177115        0.2394678313
 C          4.8396129360        2.1789268579        0.4915489554
 C          6.2371141179        1.9387523685        0.4346207445
 N          7.1237138828        2.8642842185        0.6575316131
 C          6.7109627130        4.0928551667        0.9527716242
 N          5.4323788975        4.4353435844        1.0324130723
 C          4.5215709134        3.5217955763        0.8117223001
 N          4.4340611270       -0.1112747115       -0.0355798163
 C          5.5790172347       -2.6417027699       -0.4638168164
 H          7.1366820038       -4.1058484117       -0.6825254488
 H          5.5249457596       -5.9040831258       -1.3212070841
 H          2.3342205217       -3.3807437660       -1.0095241170
 H          0.1482989218       -1.9006822942       -0.2252820144
 H         -2.3251495044       -1.9637913468       -0.2182068666
 H         -2.9652405660        1.1166311807       -2.2499489104
 H         -4.2921631935        1.9945278823       -4.1184238927
 H         -6.7630628390        1.9980662108       -3.9968622034
 H         -7.8875611855        1.0816766744       -1.9799493009
 H         -7.8071699486       -0.9177543919        2.1398537070
 H         -6.6064889265       -1.8553336178        4.1020332159
 H         -4.1328166535       -1.8199060235        4.1443232650
 H         -2.8789882268       -0.8867213016        2.2541086855
 H         -2.4133042363        2.2840159621        0.2277945742
 H          0.0250093623        2.3551052789        0.2104111580
 H          2.1016252147        2.2509496538        0.4878797882
 H          6.5844844164        0.9422921632        0.1931213022
 H          7.4551167604        4.8510725897        1.1359547722
 H          3.4970710789        3.8604794426        0.8923143667
 H          6.2236286311       -1.8242218934       -0.1780095362
  58
        -98.13453514
 C          6.1026223588       -3.7157696330       -1.3605469556
 C          5.2203898766       -4.7740030709       -1.5302704779
 N          3.9166660716       -4.6688671460       -1.3328203288
 C          3.4311430742       -3.5025610962       -0.9590767226
 C          4.2202449369       -2.3692361503       -0.7614608619
 C          3.6233961333       -1.0983885111       -0.3430291420
 N          2.3053713472       -1.0163317413       -0.3075733868
 C          1.7251317243        0.1499284247        0.0879751743
 C          0.2754510906        0.1765629202        0.0996314886
 C         -0.4267768930       -0.8528350168       -0.5474022378
 C         -1.8013294983       -0.8692361102       -0.5732715471
 C         -2.5215910972        0.1412424427        0.0613304990
 N         -3.9400724388        0.1281947994        0.0417758026
 C         -4.6419884270        1.0944452254       -0.6649338615
 C         -4.0007677938        2.0898168029       -1.3978242695
 C         -4.7335553140        3.0401951898       -2.0864878706
 C         -6.1169288912        3.0119835282       -2.0643037236
 C         -6.7722999135        2.0157882837       -1.3590591001
 C         -6.0467987910        1.0605664575       -0.6683582900
 O         -6.7538343345        0.0918999156       -0.0104345678
 C         -6.0469186671       -0.8592656949        0.6730283866
 C         -6.7724996911       -1.8340165510        1.3358490347
 C         -6.1179463771       -2.8129545794        2.0655250714
 C         -4.7360368292       -2.8045282527        2.1402187461
 C         -4.0030555274       -1.8350236980        1.4790728073
 C         -4.6426226985       -0.8568812373        0.7219574058
 C         -1.8415256927        1.1625398783        0.7208056557
 C         -0.4648299146        1.1811344444        0.7379620827
 C          2.5176443972        1.2310312538        0.4324754516
 C          3.9133075663        1.0876134511        0.3681702305
 C          4.8256592452        2.1286289251        0.6882779706
 C          6.2251697220        1.8953647219        0.6388395160
 N          7.1050214661        2.8099039310        0.9225149399
 C          6.6851492086        4.0212449098        1.2750977793
 N          5.4042455968        4.3551446287        1.3549953866
 C          4.4993763055        3.4524902605        1.0750306319
 N          4.4323373079       -0.1129632998       -0.0246988336
 C          5.5920317808       -2.4915446061       -0.9696323380
 H          7.1596128147       -3.8492988309       -1.5324822349
 H          5.5690200330       -5.7515244833       -1.8371112166
 H          2.3625857975       -3.4503550575       -0.8002407811
 H          0.1411504301       -1.6276831787       -1.0373045391
 H         -2.3322609108       -1.6585611372       -1.0854491773
 H         -2.9231434653        2.1109422611       -1.4294020142
 H         -4.2147650467        3.8038680414       -2.6446544266
 H         -6.6881521771        3.7541983176       -2.5985634639
 H         -7.8485209576        1.9574704549       -1.3340794546
 H         -7.8481500496       -1.8045421130        1.2696618075
 H         -6.6890917667       -3.5708312181        2.5775062779
 H         -4.2187593417       -3.5545330202        2.7178136807
 H         -2.9271473881       -1.8284258866        1.5504521234
 H         -2.4047749231        1.9348261709        1.2248055569
 H          0.0366805708        1.9722794093        1.2729061282
 H          2.0840603211        2.1721201829        0.7260723187
 H          6.5784494966        0.9120050965        0.3553961990
 H          7.4244871081        4.7705459877        1.5072604897
 H          3.4728356810        3.7853041617        1.1538333828
 H          6.2270817409       -1.6303400770       -0.8261951646
  58
        -98.13448645
 C          6.0975260983       -3.7132637342        1.3946462552
 C          5.2016810153       -4.6813843231        1.8275314207
 N          3.8903686177       -4.5094102828        1.8195426388
 C          3.4107694118       -3.3643870887        1.3787367654
 C          4.2135146649       -2.3199843147        0.9195669971
 C          3.6213771335       -1.0703201586        0.4353543822
 N          2.3044790959       -0.9806291026        0.4085917426
 C          1.7240985734        0.1620885345       -0.0523479125
 C          0.2753441393        0.1891410429       -0.0644921427
 C         -0.4681201650        1.2091463559       -0.6751449366
 C         -1.8446483773        1.1815662403       -0.6667494227
 C         -2.5209499221        0.1346145688       -0.0462511281
 N         -3.9420002501        0.1106524378       -0.0469753901
 C         -4.6498039800        0.4492881983        1.0952100399
 C         -4.0119252161        0.8189071426        2.2760917982
 C         -4.7502520484        1.1546794820        3.3970693395
 C         -6.1335714878        1.1325805433        3.3586417497
 C         -6.7849245443        0.7776211918        2.1881996071
 C         -6.0546553420        0.4396771789        1.0622457143
 O         -6.7540124966        0.1097493635       -0.0668763247
 C         -6.0388670474       -0.2255220342       -1.1843277524
 C         -6.7529115756       -0.5663941920       -2.3198181753
 C         -6.0847835223       -0.9277155458       -3.4788283722
 C         -4.7011076025       -0.9539709854       -3.4960498732
 C         -3.9790601183       -0.6132810233       -2.3660144011
 C         -4.6337443537       -0.2356026498       -1.1969144688
 C         -1.8005232272       -0.8887087139        0.5653382628
 C         -0.4260785824       -0.8602401264        0.5525425227
 C          2.5217711902        1.2157953610       -0.4665518816
 C          3.9158835754        1.0668919219       -0.4077228682
 C          4.8299451082        2.0823136117       -0.8019339383
 C          6.2289867626        1.8639177335       -0.7072011892
 N          7.1092238388        2.7554707704       -1.0575633326
 C          6.6884935013        3.9262000678       -1.5261043872
 N          5.4077946040        4.2432762547       -1.6583994926
 C          4.5032011811        3.3628855195       -1.3126369003
 N          4.4336136715       -0.1115429470        0.0486019748
 C          5.5931277901       -2.5113670565        0.9329266179
 H          7.1603407381       -3.8992624667        1.4178926152
 H          5.5453388948       -5.6392978789        2.1956652345
 H          2.3347578336       -3.2555389001        1.3848017291
 H          0.0291367281        2.0269320122       -1.1722524865
 H         -2.4110878229        1.9689136817       -1.1429983307
 H         -2.9341137117        0.8437489821        2.3064808897
 H         -4.2367754770        1.4366149131        4.3029530818
 H         -6.7089167620        1.3942583019        4.2322918972
 H         -7.8610897249        0.7589864692        2.1257370042
 H         -7.8298008446       -0.5447225165       -2.2739332490
 H         -6.6475042753       -1.1918815531       -4.3598831308
 H         -4.1746219348       -1.2431741170       -4.3921083604
 H         -2.9010033152       -0.6418214298       -2.3797463118
 H         -2.3308817702       -1.7001275246        1.0421941852
 H          0.1441846522       -1.6479605224        1.0182069471
 H          2.0931289380        2.1401888993       -0.8146032426
 H          6.5834871485        0.9147561801       -0.3260179228
 H          7.4277445090        4.6563345403       -1.8137040340
 H          3.4766443049        3.6785513300       -1.4435263535
 H          6.2393846474       -1.7208716070        0.5819865134
  58
        -98.13443831
 C          4.0050308187       -4.1314574839        2.6335203436
 C          5.3838767206       -4.2625923438        2.5416437717
 N          6.1483861207       -3.4074416462        1.8839219117
 C          5.5785049722       -2.3823405341        1.2855385952
 C          4.2031700156       -2.1498210883        1.3096158448
 C          3.6138881681       -0.9966462774        0.6236294197
 N          2.2930449978       -0.9146599464        0.5972098812
 C          1.7179798743        0.1489379765       -0.0304687423
 C          0.2677363928        0.1808480169       -0.0397797184
 C         -0.4678960746        1.3211665238       -0.3904979334
 C         -1.8445101457        1.3005185186       -0.3911285688
 C         -2.5298763966        0.1384752157       -0.0439344629
 N         -3.9482302655        0.1201896153       -0.0569348147
 C         -4.6622007395        0.0151384779        1.1287568470
 C         -4.0337845492       -0.0481121127        2.3695138748
 C         -4.7781409198       -0.1560153470        3.5310703728
 C         -6.1602203794       -0.1956426934        3.4780226635
 C         -6.8034168598       -0.1116353695        2.2536879410
 C         -6.0665299914       -0.0015304535        1.0873959467
 O         -6.7626435290        0.1009595418       -0.0861964736
 C         -6.0440265607        0.2189874894       -1.2446429233
 C         -6.7578622742        0.3275302369       -2.4253691257
 C         -6.0906005453        0.4271944071       -3.6355702691
 C         -4.7073958253        0.4031405623       -3.6602627188
 C         -3.9862091192        0.2966520638       -2.4841177397
 C         -4.6391329172        0.2202177479       -1.2567590518
 C         -1.8147134240       -1.0018381186        0.3166523085
 C         -0.4399196628       -0.9759981579        0.3232625852
 C          2.5091781004        1.1104050419       -0.6327064562
 C          3.9057806001        0.9640214573       -0.5767156884
 C          4.8154118260        1.8790189951       -1.1691076117
 C          6.2159905869        1.6725684326       -1.0575846167
 N          7.0916925196        2.4799695751       -1.5778964878
 C          6.6695434711        3.5487916820       -2.2467348439
 N          5.3876290670        3.8418431279       -2.4170677364
 C          4.4856075258        3.0459671089       -1.9030765712
 N          4.4200415000       -0.1185912809        0.0763059633
 C          3.4057358429       -3.0547486089        2.0060080438
 H          3.4205598363       -4.8534902788        3.1827825130
 H          5.9027893062       -5.0861319787        3.0144880222
 H          6.2330917709       -1.7047972048        0.7549933222
 H          0.0370534765        2.2397985362       -0.6447122416
 H         -2.4042346902        2.1864551985       -0.6546498393
 H         -2.9574213281       -0.0062031999        2.4191749695
 H         -4.2693476786       -0.2057652455        4.4810651117
 H         -6.7405893369       -0.2827251210        4.3825956312
 H         -7.8788771637       -0.1254033749        2.1798119808
 H         -7.8347107206        0.3281970412       -2.3739040898
 H         -6.6529556585        0.5140192188       -4.5514373422
 H         -4.1795507963        0.4641889193       -4.5992030088
 H         -2.9086310527        0.2665006131       -2.5118649794
 H         -2.3496695579       -1.9016563959        0.5842119877
 H          0.1242103052       -1.8540539108        0.5941214630
 H          2.0764479100        1.9460421773       -1.1563976193
 H          6.5715258251        0.8065444991       -0.5133895169
 H          7.4065757734        4.2096953989       -2.6730086868
 H          3.4579344390        3.3359177849       -2.0779143648
 H          2.3385888996       -2.8936689377        2.0432878641
  58
        -98.13440569
 C          6.0719986285       -3.9722527926       -0.1445875616
 C          5.1778138681       -5.0122019984       -0.3590386789
 N          3.8737846462       -4.8313538191       -0.4856795689
 C          3.3998462103       -3.6049632702       -0.4022577493
 C          4.2015269065       -2.4841257686       -0.1854603963
 C          3.6152903173       -1.1441911077       -0.0993293402
 N          2.2987410203       -1.0457983341       -0.1063929633
 C          1.7232750080        0.1860091131       -0.0287901922
 C          0.2743286865        0.2185568088       -0.0293629032
 C         -0.4268949133       -0.9892304256        0.1220820901
 C         -1.8012448242       -1.0173956467        0.1370368008
 C         -2.5201788185        0.1666907111       -0.0072367561
 N         -3.9424632099        0.1450005742        0.0086895371
 C         -4.6557667317        0.1561274824       -1.1783983120
 C         -4.0225537489        0.1747118959       -2.4178766053
 C         -4.7659027258        0.1826753291       -3.5847923388
 C         -6.1490477711        0.1701858849       -3.5353227281
 C         -6.7954789954        0.1448111103       -2.3097221122
 C         -6.0602933043        0.1359922094       -1.1373510801
 O         -6.7529725639        0.1029616393        0.0425923946
 C         -6.0311677524        0.0716940829        1.2048946872
 C         -6.7369844284        0.0230334873        2.3941818404
 C         -6.0604529769       -0.0029621070        3.6033851791
 C         -4.6767379112        0.0234790769        3.6196036114
 C         -3.9626218975        0.0723156955        2.4356020453
 C         -4.6260625582        0.0924522586        1.2120390201
 C         -1.8445939570        1.3724494511       -0.1700846297
 C         -0.4674506878        1.3983973740       -0.1802351908
 C          2.5238572697        1.3119775360        0.0654846664
 C          3.9175465132        1.1462211247        0.0689668951
 C          4.8374646908        2.2261504967        0.1634996219
 C          6.2348488020        1.9816710110        0.1227879802
 N          7.1214959702        2.9301636332        0.2033542250
 C          6.7093979013        4.1873925979        0.3307466877
 N          5.4308609394        4.5360993941        0.3817532688
 C          4.5199630877        3.5999366134        0.3018788642
 N          4.4309670162       -0.1163610354       -0.0216472662
 C          5.5735035790       -2.6854363414       -0.0559142834
 H          7.1287043669       -4.1684994412       -0.0483272841
 H          5.5164968240       -6.0373417255       -0.4338461461
 H          2.3307424899       -3.4893375515       -0.5155071693
 H          0.1432177859       -1.8978667384        0.2320190493
 H         -2.3329585935       -1.9497985605        0.2588439389
 H         -2.9446564361        0.1788744636       -2.4571207711
 H         -4.2566958746        0.1962167717       -4.5357242145
 H         -6.7282544985        0.1758759210       -4.4448271124
 H         -7.8712479996        0.1293274675       -2.2406139165
 H         -7.8141276411        0.0071932565        2.3509074657
 H         -6.6169543383       -0.0423297727        4.5261868841
 H         -4.1442594062        0.0064025027        4.5576458496
 H         -2.8843869903        0.0966429878        2.4492126659
 H         -2.4106652937        2.2848620920       -0.2903909857
 H          0.0319226601        2.3440832546       -0.3208434281
 H          2.0971145007        2.2970606664        0.1505765141
 H          6.5818256612        0.9616892323        0.0172661303
 H          7.4538705781        4.9642954764        0.3976938205
 H          3.4956971452        3.9449333040        0.3532026114
 H          6.2185248241       -1.8363827735        0.1136110035
  58
        -98.13437245
 C          6.1253539421       -3.9273014069        0.4914848570
 C          5.2362708366       -4.9928913684        0.5231084737
 N          3.9248702732       -4.8448221177        0.4328393096
 C          3.4388562875       -3.6268046762        0.3080957188
 C          4.2347954071       -2.4815392389        0.2682029021
 C          3.6331492300       -1.1539736132        0.1224110780
 N          2.3132318475       -1.0750107926        0.1073104074
 C          1.7285236293        0.1421431636       -0.0547447068
 C          0.2774537314        0.1655719404       -0.0626505862
 C         -0.4595266253        1.2366762922       -0.5840219249
 C         -1.8362171711        1.2162032629       -0.5731668429
 C         -2.5179054260        0.1281161558       -0.0321919359
 N         -3.9355748741        0.1174975743       -0.0172218424
 C         -4.6352092490        1.0418762099        0.7469978134
 C         -3.9924177031        1.9626240558        1.5705573200
 C         -4.7218688603        2.8770741870        2.3096942970
 C         -6.1043109154        2.8859763206        2.2487180223
 C         -6.7622924556        1.9587944032        1.4571363275
 C         -6.0399262066        1.0387032674        0.7171157658
 O         -6.7507299675        0.1340165140       -0.0224217127
 C         -6.0473321108       -0.7833454408       -0.7541470202
 C         -6.7784441833       -1.6968385336       -1.4936884854
 C         -6.1291028952       -2.6360951452       -2.2780465130
 C         -4.7463203624       -2.6466379460       -2.3312465740
 C         -4.0080165013       -1.7380963968       -1.5935501134
 C         -4.6425540490       -0.8041560257       -0.7785944941
 C         -1.7990606041       -0.9473703553        0.4865108881
 C         -0.4239597691       -0.9306214613        0.4611896583
 C          2.5104734775        1.2757018348       -0.1769808352
 C          3.9087359259        1.1333191108       -0.1305482944
 C          4.8107382127        2.2262704354       -0.2144216363
 C          6.2131489209        2.0071030425       -0.1642258675
 N          7.0822908714        2.9713778605       -0.2330995531
 C          6.6507089686        4.2231922483       -0.3565640158
 N          5.3660253773        4.5481359643       -0.4166965147
 C          4.4711617001        3.5966160946       -0.3499799288
 N          4.4342915738       -0.1191227471        0.0106551966
 C          5.6143110677       -2.6488618385        0.3623365627
 H          7.1883586573       -4.0976221643        0.5664492376
 H          5.5855028550       -6.0122615410        0.6239300385
 H          2.3638270575       -3.5381669437        0.2302902751
 H          0.0460778824        2.0803892142       -1.0273616936
 H         -2.3982762576        2.0390092162       -0.9911151435
 H         -2.9160044132        1.9544329243        1.6331426445
 H         -4.2011755674        3.5835131983        2.9371668696
 H         -6.6729973742        3.6023196490        2.8198198428
 H         -7.8384673648        1.9280636511        1.4010473843
 H         -7.8543400005       -1.6508230228       -1.4432990468
 H         -6.7045988690       -3.3469804741       -2.8491022969
 H         -4.2319204296       -3.3637913653       -2.9515665781
 H         -2.9314015547       -1.7457061905       -1.6511833734
 H         -2.3304266445       -1.7876467293        0.9093566517
 H          0.1425409084       -1.7572711418        0.8596099976
 H          2.0674430076        2.2524416894       -0.2757155659
 H          6.5771529812        0.9923719725       -0.0647578749
 H          7.3816846079        5.0134311198       -0.4106060578
 H          3.4413085695        3.9241491102       -0.4033114266
 H          6.2554325182       -1.7807037562        0.3327182113
  58
        -98.13424173
 C          6.1117882373       -3.9358138345        0.4469820738
 C          5.2217275693       -5.0009923072        0.4305722325
 N          3.9125656869       -4.8493213696        0.3172419725
 C          3.4297352786       -3.6279396453        0.2154721389
 C          4.2269620019       -2.4828883294        0.2228843999
 C          3.6290219641       -1.1518193092        0.0961177132
 N          2.3090960056       -1.0701062840        0.0716785023
 C          1.7291451711        0.1501419050       -0.0806716002
 C          0.2775385400        0.1757128659       -0.0933627258
 C         -0.4567191362        1.2357484065       -0.6394015955
 C         -1.8339039907        1.2177977609       -0.6288647086
 C         -2.5174949635        0.1450431792       -0.0603194994
 N         -3.9346889228        0.1352042255       -0.0384971420
 C         -4.6333397982        1.0802012827        0.7018543948
 C         -3.9901497707        2.0483205532        1.4689258681
 C         -4.7197409037        2.9818619498        2.1836155162
 C         -6.1030067878        2.9628560048        2.1559997888
 C         -6.7607961005        1.9889920479        1.4226212253
 C         -6.0381355080        1.0503488213        0.7065153848
 O         -6.7494462859        0.0998623817        0.0274778752
 C         -6.0469528698       -0.8335609261       -0.6841276123
 C         -6.7786123526       -1.7911604367       -1.3650991027
 C         -6.1312570192       -2.7490820796       -2.1281598593
 C         -4.7506700520       -2.7333828791       -2.2205642847
 C         -4.0119524149       -1.7811201831       -1.5408465371
 C         -4.6432099980       -0.8285866327       -0.7449082749
 C         -1.8000596523       -0.9199418173        0.4821122289
 C         -0.4251180029       -0.9076678025        0.4540324629
 C          2.5127589368        1.2838765424       -0.1835690905
 C          3.9109529541        1.1387824312       -0.1200324322
 C          4.8167851616        2.2299633031       -0.1699998432
 C          6.2175965175        2.0046579627       -0.0987501267
 N          7.0909933905        2.9665621560       -0.1316593405
 C          6.6662425380        4.2224880872       -0.2375209952
 N          5.3839497344        4.5530130303       -0.3160673738
 C          4.4846451236        3.6040521333       -0.2853838401
 N          4.4323506755       -0.1167159145        0.0085471403
 C          5.6041278591       -2.6537811427        0.3419163516
 H          7.1728952984       -4.1090768259        0.5402304054
 H          5.5683530304       -6.0231012482        0.5106041031
 H          2.3564782143       -3.5359945434        0.1182570744
 H          0.0519677513        2.0673363666       -1.1020647624
 H         -2.3941098240        2.0305603813       -1.0683885738
 H         -2.9127887423        2.0625245451        1.5080540973
 H         -4.1981752570        3.7248929185        2.7664424040
 H         -6.6719808569        3.6931965336        2.7087171443
 H         -7.8371567482        1.9347505426        1.3950306749
 H         -7.8535207252       -1.7644091353       -1.2865659256
 H         -6.7069080635       -3.4945186620       -2.6531404572
 H         -4.2383028239       -3.4641063637       -2.8265398329
 H         -2.9374462491       -1.7695592283       -1.6291210031
 H         -2.3327893920       -1.7485584878        0.9257078021
 H          0.1399604958       -1.7268081768        0.8697472442
 H          2.0709698393        2.2619575505       -0.2756752334
 H          6.5757243164        0.9866422972       -0.0128807037
 H          7.4008121277        5.0107589187       -0.2607175094
 H          3.4571480883        3.9361856585       -0.3527938914
 H          6.2460632026       -1.7857056432        0.3498731653
  58
        -98.13412602
 C          4.0364646200       -3.9822454223        2.8678092783
 C          5.4199842566       -4.0819986645        2.8164587707
 N          6.1791702179       -3.2477611589        2.1260927466
 C          5.5993528531       -2.2745773631        1.4553214355
 C          4.2185554308       -2.0761943917        1.4350955786
 C          3.6189733174       -0.9718017521        0.6819550092
 N          2.2950405673       -0.8992953199        0.6574171301
 C          1.7193179686        0.1373819959       -0.0091829730
 C          0.2662305520        0.1710558543       -0.0170945294
 C         -0.4577478539        1.3480599691       -0.2417134377
 C         -1.8350541139        1.3375479176       -0.2469472096
 C         -2.5283117794        0.1469468745       -0.0399152888
 N         -3.9455026290        0.1366386523       -0.0608410335
 C         -4.6648937075       -0.1731601239        1.0866768401
 C         -4.0440544601       -0.4354977488        2.3049423631
 C         -4.7932956190       -0.7517832713        3.4246732273
 C         -6.1739684601       -0.8036430311        3.3539963634
 C         -6.8106420914       -0.5168654627        2.1574739635
 C         -6.0685749161       -0.1970605895        1.0338310945
 O         -6.7609036795        0.1027561505       -0.1075305424
 C         -6.0386481905        0.4218771092       -1.2248271622
 C         -6.7507626362        0.7259865660       -2.3720450033
 C         -6.0821790669        1.0305644659       -3.5465994031
 C         -4.6990705879        1.0119621831       -3.5717326013
 C         -3.9799537962        0.7109063868       -2.4283179216
 C         -4.6338199141        0.4312578333       -1.2312499073
 C         -1.8209133289       -1.0311633195        0.1923461552
 C         -0.4453948451       -1.0140626302        0.2147542736
 C          2.4972420913        1.0730995720       -0.6611533507
 C          3.8977026300        0.9246018473       -0.6228592562
 C          4.7986266290        1.7945243466       -1.2864505481
 C          6.2010278782        1.5808446776       -1.1995892647
 N          7.0687287567        2.3444976626       -1.7922298301
 C          6.6403228984        3.3756396104       -2.5150453649
 N          5.3563736008        3.6731326190       -2.6650776446
 C          4.4610387432        2.9215643969       -2.0795809028
 N          4.4161653856       -0.1212203983        0.0834188867
 C          3.4263583418       -2.9599031244        2.1643617422
 H          3.4569693643       -4.6859561285        3.4456007266
 H          5.9474895312       -4.8615887191        3.3502567968
 H          6.2499192541       -1.6115786304        0.9017967665
 H          0.0596005675        2.2844380236       -0.3829178026
 H         -2.3878841502        2.2525376482       -0.4041093643
 H         -2.9691336519       -0.3851959126        2.3729875008
 H         -4.2887608085       -0.9548620263        4.3563683028
 H         -6.7582312830       -1.0548775331        4.2247453222
 H         -7.8853611917       -0.5301556536        2.0734540324
 H         -7.8276782529        0.7142534016       -2.3231454285
 H         -6.6430240025        1.2712618381       -4.4354515407
 H         -4.1691752762        1.2297153946       -4.4859030087
 H         -2.9025108139        0.6859739600       -2.4611236325
 H         -2.3616031132       -1.9533352141        0.3490972264
 H          0.1119604143       -1.9198999763        0.3934980598
 H          2.0522521294        1.8803728463       -1.2186126114
 H          6.5624480788        0.7443273140       -0.6147603810
 H          7.3718521624        3.9994783290       -3.0019288206
 H          3.4317280070        3.2140082225       -2.2402440553
 H          2.3551572473       -2.8231505096        2.1674947713
  58
        -98.13398271
 C          4.0518884748       -3.9132168535        2.9661251997
 C          5.4360804824       -3.8941304403        3.0679991083
 N          6.1925176943       -2.9937067489        2.4630192262
 C          5.6093167262       -2.0709981478        1.7269784015
 C          4.2275639994       -1.9935022418        1.5508679751
 C          3.6233072823       -0.9559383807        0.7115735829
 N          2.2983653406       -0.9080253550        0.6625192293
 C          1.7191472173        0.0229082818       -0.1416012594
 C          0.2651873764        0.0479038508       -0.1572068653
 C         -0.4392571280       -0.4632283939        0.9407168152
 C         -1.8145810937       -0.4323853660        0.9767276078
 C         -2.5279921454        0.0883057550       -0.1013447277
 N         -3.9443694505        0.1206421567       -0.0731628430
 C         -4.6772458889       -1.0595065996       -0.0353458718
 C         -4.0714973487       -2.3129453413       -0.0621467210
 C         -4.8341693761       -3.4665715982       -0.0102697419
 C         -6.2139671883       -3.3937319422        0.0590633202
 C         -6.8359734790       -2.1558844050        0.0552015734
 C         -6.0802787821       -0.9976491340        0.0008988546
 O         -6.7595805805        0.1895559089       -0.0297948509
 C         -6.0245029521        1.3422508331       -0.0812345331
 C         -6.7237892585        2.5363294184       -0.1129400273
 C         -6.0423799129        3.7422672471       -0.1358194265
 C         -4.6591921230        3.7473522606       -0.1077781174
 C         -3.9529994006        2.5575401184       -0.0785128457
 C         -4.6197478091        1.3352360205       -0.0874319659
 C         -1.8410139097        0.5749090328       -1.2115859592
 C         -0.4639091187        0.5614188252       -1.2357952648
 C          2.4912617266        0.9076371314       -0.8662853965
 C          3.8934797741        0.8281287452       -0.7450651047
 C          4.7898447502        1.7099321679       -1.3978783338
 C          6.1935367150        1.5715662152       -1.2208704117
 N          7.0568406006        2.3578414116       -1.7894579637
 C          6.6234148156        3.3396565515       -2.5754218797
 N          5.3379560490        3.5613086785       -2.8168651441
 C          4.4467414249        2.7854080920       -2.2579815358
 N          4.4160429125       -0.1443150482        0.0563829302
 C          3.4381354369       -2.9450159728        2.1927452224
 H          3.4746851952       -4.6686668553        3.4769567138
 H          5.9664499474       -4.6303948247        3.6575697167
 H          6.2578543526       -1.3511110366        1.2469132503
 H          0.1225747357       -0.8640743425        1.7695120320
 H         -2.3497575097       -0.8046643429        1.8382231318
 H         -2.9975868166       -2.3808889546       -0.1298020362
 H         -4.3407117534       -4.4257107581       -0.0258197874
 H         -6.8086218815       -4.2919598010        0.1056955762
 H         -7.9096694301       -2.0641599373        0.0886992221
 H         -7.8011678869        2.4974496280       -0.1148452039
 H         -6.5933248902        4.6687730159       -0.1650244411
 H         -4.1190124584        4.6812255516       -0.1058342016
 H         -2.8755161882        2.5726763198       -0.0417374344
 H         -2.3985232452        0.9560403557       -2.0550316748
 H          0.0495913513        0.9250345727       -2.1125782697
 H          2.0410981787        1.6685235823       -1.4819628440
 H          6.5593114312        0.7764987483       -0.5833567707
 H          7.3514334697        3.9854993583       -3.0380641431
 H          3.4162040006        3.0163763464       -2.4932443832
 H          2.3662028050       -2.9073292213        2.0672179895
