82
 energy: -133.812826708815 gnorm: 0.000136581702 xtb: 6.7.1 (edcfbbe)
N            2.62615259654784        2.02984837345545        2.09640150715706
C            1.95399429648188        1.45388014692297        1.36782494604070
C            1.06712479259142        0.73010904399805        0.54106563825060
C            0.03532902545842        1.40217455499457       -0.14126273950550
N           -0.01733549004432        2.79417465201716       -0.11922706769854
C            1.01766713906785        3.68782448841872       -0.36611153293128
C            2.30538764813574        3.29250990367854       -0.91651797680398
C            2.40806506746050        2.29191557806589       -1.88130497636151
C            3.64168143507920        1.97201404142875       -2.41922652659059
C            4.77990787912256        2.64069590765218       -1.99913032734330
C            4.68063230974773        3.64318017521397       -1.04737056193594
C            3.45111033482684        3.97507116350995       -0.51294849128063
N            0.67616447052450        4.92153131070405       -0.14724727885738
C           -0.62878936672221        4.89707138555292        0.26546822217601
C           -1.47576181719427        5.93564622725151        0.63315365507452
C           -2.76219911452008        5.60944296109156        1.00970557677025
C           -3.20555885824790        4.28662489731079        1.03225513460611
C           -2.38019249778738        3.23878551823795        0.67282881974142
C           -1.09411269471338        3.56235139784294        0.27928402200951
C           -0.93267920253713        0.67868534367332       -0.81989665491075
C           -0.86649125359089       -0.71258795927625       -0.85524799475261
N           -1.82794413827960       -1.43304552003821       -1.56459574531191
C           -3.20551300615216       -1.28429691275920       -1.51219682484867
C           -3.88591120890177       -0.48894516890006       -0.50119186528493
C           -3.41990928274691       -0.43855728834535        0.81158699428118
C           -4.11100085571482        0.28871904309236        1.76353682973172
C           -5.26643364828872        0.97132945343818        1.41834590396558
C           -5.73934432373817        0.91445326269810        0.11703300131155
C           -5.05867078232743        0.18405392968536       -0.83827820161207
N           -3.82254453775331       -2.00071520188683       -2.40496167450794
C           -2.85285389448035       -2.66925468950940       -3.10210011728332
C           -2.96167694092195       -3.55669120059011       -4.16640901451362
C           -1.79518192622036       -4.07428057023283       -4.68884885635460
C           -0.54416781832811       -3.71960642319342       -4.18147425945282
C           -0.41283784853244       -2.84034343084404       -3.12426818726845
C           -1.58125485011912       -2.33209709115198       -2.58279633418825
C            0.17609619463366       -1.38263681217104       -0.22608030585532
C            1.13623352995692       -0.67103365648332        0.48253104400705
N            2.14718365833074       -1.35963763168196        1.14882710055975
C            1.99555703478582       -2.48050289537931        1.95535351992326
C            0.70003395732894       -2.98789022755555        2.38519179548428
C           -0.33909790502533       -2.13062056335291        2.74358077324602
C           -1.54842655307332       -2.64927939166067        3.16798723111987
C           -1.73626013456160       -4.02012366044923        3.23423624909205
C           -0.69996300476555       -4.87611981216369        2.89837029984027
C            0.51480188668293       -4.36546916346169        2.48261390079128
N            3.13133198999604       -2.98709762982085        2.32904961251672
C            4.10730648995457       -2.20356438156323        1.77306040634946
C            5.49105183204647       -2.30850234294159        1.84538514144338
C            6.23907452871132       -1.37656873301044        1.15695412192644
C            5.63775785580964       -0.36880178905216        0.40214095256005
C            4.26491620563843       -0.24696206196106        0.31568096109861
C            3.50970911212546       -1.16343731021780        1.02507809684127
H            1.52265754883271        1.77870282741517       -2.23183977276653
H            3.71358919171114        1.19774869881890       -3.16939636456139
H            5.74062262759402        2.38233723813145       -2.41901670829754
H            5.56590755348758        4.16874493500690       -0.72309351740242
H            3.35442965328720        4.75465973461388        0.22502700271976
H           -1.12458317377918        6.95440209963366        0.62300988725239
H           -3.44575417910429        6.39338740224835        1.29961729324335
H           -4.21891429098047        4.07221155037192        1.33693899229409
H           -2.72859408588613        2.21799753728333        0.70237162803869
H           -1.72299239332497        1.19664800993744       -1.34120821797919
H           -2.53359426199770       -0.98915200770386        1.09314331181248
H           -3.74608037257898        0.32544350168607        2.77978268326888
H           -5.79925779520523        1.53998073840970        2.16567123663539
H           -6.64379948629953        1.43901499283398       -0.15205027305001
H           -5.41942174941209        0.12026375596962       -1.85280183414139
H           -3.92974119151938       -3.81741675763291       -4.56172566914374
H           -1.84408304389297       -4.76693588013889       -5.51560557141828
H            0.34353634385807       -4.14244937328264       -4.62738515351240
H            0.55902377583048       -2.56212764862093       -2.74402009123001
H            0.22630561729538       -2.45994367019133       -0.26280224548354
H           -0.19088151362822       -1.05960533783138        2.72151177649965
H           -2.34755201182824       -1.98281925800381        3.45759303542502
H           -2.68575753364210       -4.41825310277501        3.55906314767276
H           -0.83922284538579       -5.94474472479447        2.96419657797159
H            1.33562309044130       -5.01734481592817        2.22752417286964
H            5.94811677267019       -3.09742394100359        2.42004997244494
H            7.31693719658386       -1.42732819375638        1.19503941262849
H            6.25789114780489        0.33746362315391       -0.12861441164565
H            3.81343009329436        0.53311382588088       -0.27681724262402
