82
 energy: -133.719635077990 gnorm: 0.000115037756 xtb: 6.7.1 (edcfbbe)
N            3.33622604812258        1.12157186024508        1.64200948895209
C            2.41319338891565        0.78485923516822        1.04291519099543
C            1.25681267745129        0.37363750554400        0.36726029761542
C            0.33377755032568        1.32648265265624       -0.12954055291526
N            0.66736525285829        2.68588775320848       -0.07991163351911
C            1.84814163461398        3.27318820302516       -0.49164084161595
C            2.87655895178118        2.58503322312981       -1.25523060444703
C            2.55515830906502        1.63307263758786       -2.22148858346420
C            3.55819519022119        1.02502894609661       -2.95429489901254
C            4.88498475101349        1.35544089428895       -2.72951920819978
C            5.20776482206217        2.30962199310173       -1.77763993300137
C            4.21147261203339        2.92871293682781       -1.04888067843013
N            1.90609749523528        4.54138400464306       -0.19148820086443
C            0.73573939439472        4.84854448863559        0.43819441434568
C            0.28065564670593        6.05322145583262        0.96437456756453
C           -0.96367036167431        6.06324477477070        1.55742766874632
C           -1.74579564746080        4.90907563797595        1.63782004551729
C           -1.31349612664429        3.70214959032694        1.12323390912972
C           -0.07129651759859        3.68761830022164        0.51430509006547
C           -0.87840041234228        0.92604588133246       -0.64373990850669
C           -1.19108491258576       -0.44117550481839       -0.74139242379368
N           -2.40366407638486       -0.83324597697099       -1.28238300230142
C           -3.64873094842501       -0.22604793528139       -1.06902837572953
C           -4.03359185115933        0.53863514220158        0.04056305586911
C           -3.28230529567086        0.62395949550024        1.24574202764690
C           -3.75340142643616        1.35650689574386        2.30603090177141
C           -4.96413938239877        2.04414500729291        2.22134822380390
C           -5.72800474060192        1.95195003371011        1.05533556574190
C           -5.28844821373222        1.21151065983013       -0.00843075997791
N           -4.54966553497633       -0.62763943658082       -2.01960472564936
C           -3.95366104308078       -1.56777733034220       -2.73210195640175
C           -4.44881895496803       -2.33013798689290       -3.81330210730255
C           -3.58024792909290       -3.17917431991789       -4.45120992423019
C           -2.24172561152718       -3.29778919149647       -4.05522451056827
C           -1.72544945303861       -2.57108754780232       -2.98183363588927
C           -2.58503676721547       -1.73437764035391       -2.31197528519553
C           -0.25853851674614       -1.39441273339482       -0.31663755945353
C            0.93311855220149       -0.99730015625277        0.25413960088745
N            1.80677074471659       -1.96575259164474        0.76316522688992
C            1.47458769803921       -3.00982784426064        1.60393558969988
C            0.16451779392597       -3.16333736446917        2.21925290517692
C           -0.56348344023587       -2.06661805165706        2.67934047915966
C           -1.80628239439183       -2.25248195517313        3.25460176499602
C           -2.33350454674378       -3.52752931736392        3.38149326912579
C           -1.60204435227552       -4.62327597214687        2.95272242932888
C           -0.35785008250906       -4.44565998433213        2.37857182944956
N            2.47344883758214       -3.82337095797200        1.81075828461864
C            3.53337574776520       -3.32266221656334        1.11120544097992
C            4.83470804845619       -3.79734080603133        0.98177013878075
C            5.69640351301160       -3.08658445096149        0.17426834418815
C            5.28517601174566       -1.93628767364487       -0.50254647348963
C            3.99799791412875       -1.44837450199739       -0.39106852070408
C            3.13483708154207       -2.14219287152153        0.43828503388420
H            1.52175774215658        1.38257621243015       -2.41783287749529
H            3.30246094571113        0.28993011851663       -3.70389456126979
H            5.66359196841309        0.87152581319103       -3.30036321296174
H            6.24062518108625        2.57114601047643       -1.60456928769280
H            4.44386627631155        3.67311471593195       -0.30484645609799
H            0.89182849817649        6.93884657348131        0.90375069535784
H           -1.34708971296123        6.98267460566116        1.97391897276187
H           -2.71437856490905        4.95860229522728        2.11248286030247
H           -1.92144545977231        2.81340140868710        1.19548137293263
H           -1.57786552702768        1.66023693117271       -1.01344152818379
H           -2.36829063461201        0.05941070648581        1.34583143918793
H           -3.17933759108581        1.40195666061130        3.22098127713956
H           -5.31348298290784        2.62982131067009        3.05721259176247
H           -6.67281919137960        2.47161200799482        0.99622419657482
H           -5.86387114373358        1.12689869287258       -0.91589224401277
H           -5.48116408327762       -2.23318439930957       -4.10516051916769
H           -3.92855382087136       -3.77458529387954       -5.28182706222819
H           -1.58928651897552       -3.96618630112609       -4.59555326110493
H           -0.68526558170320       -2.66206181844573       -2.70970114866115
H           -0.49716187799999       -2.44480788918513       -0.37860354244222
H           -0.14397203917823       -1.07272159090270        2.61409736590406
H           -2.36625059878577       -1.40060994056624        3.61134510451467
H           -3.30803487386461       -3.66561627045924        3.82535335809697
H           -2.00365993933705       -5.61912270051802        3.06672164804434
H            0.22652056477612       -5.28817677683859        2.04291893449551
H            5.14312925295213       -4.68960916900983        1.50192040111306
H            6.71498169258266       -3.42488533693804        0.05625975901016
H            5.99006682305929       -1.41094245992856       -1.12885918541081
H            3.68947465443727       -0.56293768374215       -0.92394425593144
