86
 energy: -129.603054322377 gnorm: 0.000052038174 xtb: 6.7.1 (edcfbbe)
C            3.13178631611925        3.75660776768102       -2.52436923043317
O            3.26691935107625        2.61114631948105       -1.71013772340600
C            2.26823180059777        1.72306522659191       -1.55164985717779
C            0.97399093588491        1.85454491590446       -2.06420399426163
C            0.47238824856391        3.03455278205030       -2.64202392795776
N           -0.04709600435488        3.96434173987634       -3.07861242097562
C            0.05451738609549        0.76847216971409       -2.00505162394784
C           -1.30961444028794        0.91543811350296       -2.60210347710420
C            0.46765503323563       -0.41724353881269       -1.47090750126042
C            1.75007568394619       -0.58274619180812       -0.91851496873557
C            2.21827864247482       -1.86297845847987       -0.50756446616075
Se           1.10676128761010       -3.37128466869148       -0.44296437211640
Se          -1.78728944416585       -3.77345279013617        0.70270813097249
C           -2.51136672502642       -2.07352322030264        0.38875430923015
C           -3.62880375419311       -1.92049167108368       -0.45033520722974
C           -4.18521178885657       -3.05346240690470       -1.24588051136619
N           -4.27213844263232       -0.77347977708655       -0.53007611013656
C           -3.85010964933516        0.31775573132724        0.10916925852970
N           -4.75466765407856        1.29914202885027        0.24030443412743
C           -6.02650321241840        1.15158035466920       -0.45013158747033
C           -6.78194296658400        2.47257748496488       -0.43598195573488
C           -7.15252077368528        2.86536054332223        0.99861777123052
C           -6.09002527566217        2.35322020553405        1.97714892131668
C           -4.72308779964967        2.28726745257022        1.29711405933155
C           -2.50289478768285        0.36593454423684        0.61646527817858
C           -1.72225345385650        1.54338281260062        0.72970837771226
O           -2.27747626788841        2.64376839949207        0.17816584619080
C           -1.67351385578838        3.91573020009990        0.28026934716205
C           -0.45195131302502        1.46968466460164        1.30662047133106
C            0.45835187181815        2.53476305895037        1.36021865667456
N            1.29649289750902        3.32335878483772        1.41317079274912
C            0.03559007379731        0.23059862110049        1.81737425537851
C            1.33736219064882        0.19130650492982        2.55304458590575
C           -0.66981521507288       -0.91009156635513        1.57053394906926
C           -1.89700454947011       -0.89000975637216        0.88303529883970
C            3.58731041281216       -1.99300738762627       -0.22233989768544
C            4.22931899343137       -3.32035832657878        0.00701302330462
N            4.36810095814963       -0.93988262027415       -0.10122357082861
C            3.92243626264213        0.30536332480190       -0.27055525263939
N            4.77515726842042        1.28021016924688        0.10436051693519
C            6.18068827907995        0.97337432441192        0.28249091852898
C            6.56120136498031        0.87336359482767        1.75898213869176
C            6.19782621563057        2.17729442448071        2.46057350739590
C            4.71804885211648        2.46566191634882        2.24033720820289
C            4.37956984630021        2.51385408948499        0.74409578595066
C            2.63170906494480        0.52903757855997       -0.86925576798920
H            2.47689614548006        4.50049440182021       -2.06526111946114
H            4.13905896395326        4.16234337899041       -2.60755807193090
H            2.75758824000986        3.50318687073309       -3.51930619261767
H           -1.83481114001991        1.77016853799932       -2.17823795507357
H           -1.89763194697912        0.01807088564589       -2.42545039502361
H           -1.23539769044864        1.07939479558466       -3.67761386871903
H           -0.19252794760804       -1.27323738381638       -1.48859094757923
H           -3.40581395485270       -3.49476652819419       -1.86668878044465
H           -4.54868478112789       -3.83188034331332       -0.57482750632689
H           -5.00092736161827       -2.70014747643593       -1.86916766395826
H           -6.62452691803751        0.36361111733632        0.02271413680674
H           -5.81285390946160        0.82819270230253       -1.47123496823996
H           -7.67863435772120        2.37627047799917       -1.04736521116670
H           -6.15308244678077        3.23950620447128       -0.89009584686575
H           -8.12163645443485        2.44316727248625        1.26544367103744
H           -7.23538534114912        3.95038723946095        1.06631095581222
H           -6.34925177788505        1.35498573637796        2.33441475853328
H           -6.02151868095369        3.00792946574292        2.84584490615078
H           -4.47040282101352        3.27144289771775        0.89177304325936
H           -3.95719092406836        2.00396802350782        2.02283042611645
H           -2.39538415589688        4.61070227954074       -0.14675735155709
H           -0.74889404768483        3.97038176918835       -0.29775789929878
H           -1.47336111203275        4.18466087581402        1.32017147330967
H            1.51569968681016       -0.80482245159466        2.95026144823298
H            1.33933794236663        0.90931478377326        3.37254218770755
H            2.15861197036253        0.44929748902714        1.88349851420978
H           -0.26914435138258       -1.86684007130479        1.87431705039945
H            5.28479950261909       -3.18586010132035        0.22252760500646
H            3.74597238678256       -3.83071626324158        0.84025797013140
H            4.11058537719823       -3.94934129723534       -0.87485675631625
H            6.74586219483718        1.78823302301035       -0.18319550234044
H            6.39580670517320        0.03934912980721       -0.23480378584980
H            6.01815543607155        0.04075634841750        2.20928739573301
H            7.62936379760164        0.67252124997336        1.84191904404197
H            6.79652839200708        2.99372149047274        2.05165896610492
H            6.40830701680916        2.10499727693813        3.52854736075110
H            4.12116377629099        1.68359704399661        2.71415673238867
H            4.43506859956937        3.42033545385407        2.68398492265987
H            4.91534906589490        3.34291103758419        0.27289450661823
H            3.30881145481247        2.67843390558019        0.63857299632696
