86
 energy: -129.642922806235 gnorm: 0.000074597295 xtb: 6.7.1 (edcfbbe)
C            6.20870029808994        2.06554885423836        2.10416216995403
O            5.74034013742005        1.02341240035721        1.27598514015037
C            4.60018926169478        1.14886881832665        0.56358382212291
C            3.87356148069295        2.32879520097618        0.38986020837090
C            4.32947600845274        3.60085606338472        0.77994798021116
N            4.63686036796409        4.68232843179017        1.02735572787700
C            2.59988288633525        2.30361963090950       -0.25052645852021
C            1.86396294374773        3.58647869606472       -0.47536330931073
C            2.05861408911218        1.10404967416007       -0.60639245691817
C            2.76218471142599       -0.10612819930260       -0.45128748276243
C            2.16444841374083       -1.37219931211971       -0.66695678160200
Se           0.39064341167417       -1.53129870134230       -1.38891925249562
Se          -0.80981511925185       -1.72494814592176        0.64437884565724
C           -2.53645126395118       -1.18818230003657       -0.01278370861198
C           -3.33644587122395       -2.10775881972267       -0.68112141939181
C           -2.85522498377808       -3.46921039398860       -1.06501577012634
N           -4.60059914306456       -1.83269008569334       -0.96407383474237
C           -5.13474858904444       -0.64646601289954       -0.69660614273005
N           -6.47883094471569       -0.57238547135270       -0.74963363587374
C           -7.22454154163600       -1.72943186110939       -1.20151817534296
C           -7.54955912330348       -2.66727210795274       -0.02895180577752
C           -7.72214974539508       -1.84513978841737        1.25362849801445
C           -8.28847855358942       -0.47175862789100        0.90743862318500
C           -7.25891109427650        0.32038088099206        0.08353194248784
C           -4.28545794015264        0.46917514997430       -0.37049033143655
C           -4.62236465927455        1.83170686516858       -0.59151638507567
O           -5.72102938588095        2.02239455597423       -1.35253014314744
C           -6.09651637395619        3.30394317746738       -1.80803121271740
C           -3.79130261817939        2.83398299287191       -0.08562022768272
C           -4.07860130860296        4.20888691017492       -0.14834025070436
N           -4.24131350071378        5.34847691948073       -0.12300953914509
C           -2.56906073075363        2.49291788271595        0.56584292178626
C           -1.72157461715650        3.57676594166497        1.15378523826950
C           -2.17368662409780        1.18872564664110        0.60021189298212
C           -2.98437695024909        0.15024473386347        0.10123342366935
C            2.86324883805824       -2.51291399800664       -0.29432667166610
C            2.23335529421851       -3.86658038089629       -0.24158607404862
N            4.15880933375939       -2.45761510607870       -0.01748867531687
C            4.82422729462445       -1.30957016824063       -0.00696403408725
N            6.17188486403232       -1.39716951792484       -0.01304139552977
C            6.79467507308082       -2.69700191637417        0.15663773734352
C            8.09740247227259       -2.54086721473624        0.93818568112416
C            9.04011246672231       -1.58638246759861        0.21245437411914
C            8.33552801136253       -0.25012962369359        0.00098722746326
C            7.02064149646499       -0.47405014331037       -0.74046865481986
C            4.10322030046205       -0.06320609177830        0.01289836918156
H            5.41187743161111        2.47152130985926        2.73217286564612
H            6.96867729918431        1.60958269359685        2.73793647640187
H            6.65785561662376        2.87312581729375        1.52096597391469
H            2.44516435264651        4.24719083902376       -1.11880322265130
H            1.70285662693852        4.11191542095085        0.46574119453625
H            0.90272120082296        3.39554031488143       -0.94462354663045
H            1.05636957672490        1.06531009416408       -1.01031582096082
H           -2.55155605943474       -4.02470418742287       -0.17762906680570
H           -3.64680982270028       -4.00602653122748       -1.57847155738939
H           -1.98678781858692       -3.38738091708047       -1.72098577402018
H           -6.63428654394847       -2.24594378708218       -1.95679913023490
H           -8.14321432102283       -1.35485047109902       -1.65931402650119
H           -6.74291023641972       -3.38788522015283        0.10144187017841
H           -8.46382584216235       -3.21547990400559       -0.25710230702200
H           -6.75421741560710       -1.71609928905663        1.74449645525604
H           -8.38043497031108       -2.36429766575564        1.95033374769656
H           -8.51900888395081        0.09045687838159        1.81273974303386
H           -9.21538518570847       -0.59528885232381        0.34645616061217
H           -7.76897811496400        1.06324028177369       -0.53866834706742
H           -6.58019194800748        0.84592052496617        0.75935415934909
H           -6.90815752073345        3.12710465599552       -2.51286135546475
H           -5.27334090130125        3.80702486384157       -2.32138196739694
H           -6.45353017687226        3.93498302286739       -0.99047442803083
H           -1.45843461938941        4.31726657672873        0.39879523049477
H           -0.81085130056946        3.16015024210433        1.57537445859845
H           -2.26749488997230        4.09787732102814        1.94043413016229
H           -1.20745864976981        0.93084845186932        1.01123698038059
H            1.39652892093720       -3.86227799738938        0.45887837124046
H            1.84517414027433       -4.13853547961846       -1.22320058822737
H            2.96835790686183       -4.59986105621689        0.07513185417253
H            6.99725111916731       -3.14552532278430       -0.82512787091758
H            6.09446726199179       -3.34024359172711        0.68816069838142
H            7.87041393726795       -2.14619213642361        1.93013057922098
H            8.56045784194542       -3.52117363599763        1.05680096280530
H            9.31835923022266       -2.01170942417032       -0.75447574371579
H            9.95225794174711       -1.44215762151585        0.79299258033114
H            8.12599605177303        0.20918995205461        0.96577889944702
H            8.96195642455509        0.42924629982307       -0.57862011803522
H            7.23931403285789       -0.91901000439695       -1.72408110887451
H            6.49988753417050        0.46594656312463       -0.91196440653950
