86
 energy: -129.602169687185 gnorm: 0.000068481395 xtb: 6.7.1 (edcfbbe)
C            2.95051515673090        3.92169517150849       -0.27890280756349
O            3.08775610443311        2.51622545316204       -0.19716340681439
C            2.22943063786784        1.68004226777558       -0.81682127305458
C            1.08215483124361        2.06243298019953       -1.51772443491861
C            0.69825652765678        3.39300226247820       -1.75757209399109
N            0.27235528268725        4.43174258954795       -2.01288924014824
C            0.18698699091534        1.08237370993769       -2.03563965499210
C           -1.00439652217277        1.50386606676529       -2.83608125694431
C            0.41620733993647       -0.23388630254881       -1.75667337168941
C            1.54978294643180       -0.65925607676149       -1.04443937925461
C            1.70665976969634       -2.01462215331485       -0.63531538446878
Se           0.64122872522630       -3.38188596180199       -1.31409985564768
Se          -1.01447000073001       -3.26021606903334        1.53907194076118
C           -1.90632734476472       -1.82392337220216        0.75711810227804
C           -2.93538226893155       -2.04068066241365       -0.17841053107274
C           -3.18839596601403       -3.37558515252016       -0.79124182366708
N           -3.78301847278602       -1.08222518379832       -0.48692491578642
C           -3.67569847615774        0.14681613535174        0.02309750772839
N           -4.78963844375487        0.89175028479679       -0.04095922524763
C           -5.91069710870235        0.37530163103910       -0.81101145328103
C           -6.95313418523002        1.46581445097263       -1.01065237776672
C           -7.55774187083135        1.88394816797416        0.33436063735137
C           -6.51407046165341        1.74139212481564        1.44734877847209
C           -5.10587135498460        1.95206345049226        0.89167483732119
C           -2.42931398005082        0.56701644103196        0.61024431855369
C           -1.97228127458946        1.90870812439213        0.66618755223642
O           -2.71357066302554        2.78831292923243       -0.03821250274279
C           -2.47350901022085        4.18239052905111        0.00369613511098
C           -0.79459887460333        2.20259100494636        1.35966998903299
C           -0.26316647746683        3.49403815859192        1.51001939435281
N            0.27181388314020        4.49713951482715        1.69251786530464
C           -0.02336156119421        1.16128398089507        1.95141070915890
C            1.21088978637637        1.49561225053624        2.72786052250116
C           -0.40565322934756       -0.13562605113792        1.76151379854522
C           -1.58026951262616       -0.47345542575691        1.06849966622182
C            2.70665742753179       -2.28534666748719        0.31599702426104
C            2.79853714335737       -3.58846609256359        1.03333469681902
N            3.66990897392631       -1.41851652254232        0.54583807506027
C            3.71951684360764       -0.22981272036885       -0.05596549255855
N            4.92239050225881        0.37476045027237       -0.05032219115527
C            5.99512161900028       -0.18472674142688        0.75149485300566
C            6.83274223264841        0.94157282818213        1.35423495965272
C            7.39794245049161        1.82910376697660        0.25075594770744
C            6.24572356066239        2.36625006615462       -0.59124836320120
C            5.41271495608371        1.20560792371923       -1.13037094719095
C            2.52605299658704        0.29933135301752       -0.66754985025275
H            3.77784480769904        4.32480346144660        0.30280913377753
H            3.02672402455152        4.27082481912385       -1.31112874174358
H            2.01131601759070        4.26506247947953        0.16040279918688
H           -0.70282581990914        2.14196594237520       -3.66606636384081
H           -1.70192257054246        2.07382135149433       -2.22279950724140
H           -1.52092773873712        0.63149181868701       -3.22780330756044
H           -0.29527736540018       -0.98360572807067       -2.07337763404380
H           -3.94880068990687       -3.29050124883892       -1.56136300403387
H           -2.26738215131227       -3.77565823762524       -1.21669356316656
H           -3.52350985019167       -4.07624478401761       -0.02597036661676
H           -6.35334880093580       -0.48774444893051       -0.29976362068672
H           -5.52047312490994        0.01967480881522       -1.76697841421025
H           -7.73030526666852        1.09570480947030       -1.67846657351549
H           -6.47868023636379        2.31927266206485       -1.49665650726458
H           -8.42110551919795        1.26074575308039        0.56819597476586
H           -7.90292844177981        2.91612238550533        0.27082149422940
H           -6.56617869508627        0.74750355316214        1.89538216408554
H           -6.69358102866911        2.47005837360224        2.23766882623437
H           -5.05394163291031        2.92504457828854        0.39477637266985
H           -4.37712428498880        1.93766631181833        1.70524017498485
H           -3.27677049435859        4.62485529755570       -0.58399586611212
H           -1.51591617389471        4.44396707566478       -0.45206924630624
H           -2.51323675263693        4.56472337736571        1.02594392186488
H            1.62807274643957        0.59766398872373        3.17607601337228
H            0.98662523797776        2.21510415420192        3.51476732705729
H            1.96510597791114        1.94360915564491        2.08099156955332
H            0.21152063205557       -0.93949853633529        2.13774824719172
H            3.55990485584828       -3.53373769718414        1.80526209265112
H            1.83543926665468       -3.84580937868294        1.47511151407518
H            3.05392753312977       -4.38043222331769        0.32869717077521
H            6.62736027425405       -0.82459768750550        0.12311695483471
H            5.55050840903155       -0.80230470986842        1.53087841823311
H            6.20380307220643        1.53715080295814        2.01827498450407
H            7.63660866498889        0.50348556329213        1.94623390978156
H            8.07645510529099        1.24826336390424       -0.37755549783207
H            7.96251074748106        2.65551587558102        0.68384684593148
H            5.61368985601073        3.00173081510203        0.02644736197722
H            6.61874665659523        2.95560102852531       -1.42930096568761
H            6.05352715032656        0.57720189085592       -1.76711237721973
H            4.58615337886344        1.55992780138076       -1.74246029035240
