86
 energy: -129.655938776703 gnorm: 0.000084650434 xtb: 6.7.1 (edcfbbe)
C            2.96707583568349        3.89271838968020       -0.30694212907913
O            3.14777449338474        2.49423933420050       -0.22259404496392
C            2.28380680298558        1.62938872057198       -0.79414011013883
C            1.11999611510025        1.97661683586206       -1.48233944749861
C            0.70344073146785        3.29251094630956       -1.74058693593828
N            0.25004166105589        4.31738423250312       -2.00668731777927
C            0.23630937728183        0.96583696427902       -1.96670553208584
C           -0.95921957240305        1.35072792297068       -2.78023914048418
C            0.47907710837355       -0.33453609696338       -1.64411797748228
C            1.61473248472618       -0.72239819691407       -0.90619674933206
C            1.78506267481536       -2.03543157226754       -0.40593668923043
Se           0.52625218397494       -3.43340676959633       -0.84088899128646
Se          -0.87507146329230       -3.31439222420114        1.00469256030088
C           -1.97717434191658       -1.81267996264465        0.49767838119132
C           -3.05009872167809       -1.99149196130575       -0.36492279012113
C           -3.32406018109249       -3.28882529083251       -1.05297548927415
N           -3.92654041647188       -1.01943715088058       -0.57421087325757
C           -3.77773524513045        0.18287333201114       -0.02680414128054
N           -4.87154876372621        0.96484766882409       -0.04020408828971
C           -6.02556573033491        0.48933692911506       -0.78946841241916
C           -7.06706928152665        1.59347618964388       -0.89510949301895
C           -7.61908871427402        1.94448606359987        0.49097115259379
C           -6.53685376988355        1.74061275868304        1.55689194011399
C           -5.14847860898314        1.97347080344431        0.96217419599961
C           -2.50862246176875        0.56541422828462        0.53882788648890
C           -2.03456376370393        1.89983255587829        0.63871865650368
O           -2.77679443474698        2.81223691126814       -0.02411572999043
C           -2.48848595389121        4.19495507906041        0.02567095761013
C           -0.84379226914405        2.15617001980728        1.32146299524014
C           -0.28222601816955        3.43014708300575        1.49549411243354
N            0.27943843324093        4.41611621616996        1.69450712327997
C           -0.08607702733838        1.08247235048041        1.87804100168401
C            1.14588038867475        1.37848299028133        2.67460158761155
C           -0.47547391217418       -0.19945322679840        1.63341471591200
C           -1.64870105688083       -0.50096574853358        0.91362873951096
C            2.82607737827372       -2.28169834198573        0.47618086524942
C            2.94686791856148       -3.55262328234628        1.25143393512647
N            3.81058652030802       -1.40537445598014        0.62656958573266
C            3.80910023668563       -0.23347752237363        0.00641660171290
N            4.98345014487513        0.43844136850956       -0.00136622928075
C            6.07642790758110       -0.06693594250834        0.81056280801056
C            6.94353968665175        1.09588421856793        1.28665870596415
C            7.48466859697687        1.87656737980880        0.09368921121660
C            6.31381924134368        2.35121812882149       -0.76045721784808
C            5.45614019719727        1.15756740115844       -1.16934714802902
C            2.59640965860853        0.25641844438860       -0.59846682802653
H            3.79821505260724        4.32266573455790        0.25000772081328
H            3.00394503644888        4.23980828256007       -1.34239436338833
H            2.02979336305227        4.21048128600752        0.15639317795263
H           -0.65995890823380        1.94804045715992       -3.64116031147341
H           -1.65209693954782        1.95222239493821       -2.19229856440513
H           -1.48149082831053        0.46333249497658       -3.12848122039059
H           -0.22628478507477       -1.09806496039755       -1.94229380123403
H           -4.20327128298045       -3.18989302856324       -1.68206078315045
H           -2.46821679468953       -3.58229614484963       -1.66361629895754
H           -3.48899153351630       -4.07547352774661       -0.31646008559237
H           -6.45339852453806       -0.39774951261154       -0.30696786961553
H           -5.67304819112684        0.18333765234992       -1.77701117734052
H           -7.87145497776041        1.26450076970748       -1.55255100598911
H           -6.60287250095437        2.46850920211013       -1.35205890875241
H           -8.47753379075798        1.31369990241969        0.72382921061567
H           -7.95976611972264        2.98037643807491        0.49353617455111
H           -6.57914324634412        0.72460335911663        1.95357088509783
H           -6.68510964277563        2.42782959400218        2.39000808804039
H           -5.10417796073578        2.97393063686081        0.52152387502132
H           -4.39225055113422        1.90796901308726        1.74819059795666
H           -3.28854156059230        4.67087704803231       -0.53993170732328
H           -1.53148304722003        4.42678024050865       -0.44838568954449
H           -2.49234872281151        4.56907290504693        1.05209367967483
H            1.56065255359524        0.46161964194063        3.08543102432860
H            0.91865100386151        2.06295889872097        3.49150973212126
H            1.90469853010735        1.85381651512846        2.05311908876533
H            0.13743245515663       -1.01839482429830        1.98443323601626
H            3.83705451573682       -3.51954500180821        1.87190546070800
H            2.06714484444776       -3.69709526940395        1.88128235488683
H            3.00799697340640       -4.40198748922746        0.57080009247755
H            6.68233644110443       -0.77318708998011        0.22713223977650
H            5.64786444106604       -0.60430438157216        1.65580618741862
H            6.33992349309999        1.75668664021995        1.91148148688339
H            7.76130877795148        0.70379831389303        1.89222380531289
H            8.13698614330087        1.23297062730540       -0.50077213368081
H            8.07156180298716        2.73022007659817        0.43517215104657
H            5.70473624980272        3.04669312719601       -0.18524857316907
H            6.66943520958396        2.85973289304806       -1.65753508653408
H            6.07113099813087        0.46684697212058       -1.76820402150782
H            4.61584263482047        1.46967590240077       -1.78646441829747
