66
 energy: -107.497844520354 gnorm: 0.000056106995 xtb: 6.7.1 (edcfbbe)
C            0.61769660064493        0.00283441537225       -0.00832087769353
C           -0.61798818653306        0.00307453432454       -0.00812653397931
C           -1.98362496868642        0.00279802098937       -0.00684708017087
C           -2.72157233786043       -0.62226440302716        1.04493431958765
C           -4.08436589054638       -0.62865329577802        1.03546355795713
C           -4.79733437225891        0.00174198816118       -0.00305654889598
N           -6.20501857133370        0.00125272848189       -0.00117016352321
C           -6.91417920755259       -1.19488785295572       -0.03040993514323
C           -6.27923170811014       -2.43163211307874       -0.12705622681964
C           -7.01356592100403       -3.60403415232472       -0.14914890832806
C           -8.39493465216629       -3.56839099243802       -0.08954990521199
C           -9.04609135660412       -2.34635604140573       -0.03353639889252
C           -8.31813061274082       -1.16959341736103       -0.01250351883164
O           -9.02819672356188        0.00050056945346        0.00172827751715
C           -8.31874227238216        1.17096786827621        0.01540585751629
C           -9.04725408654954        2.34734274966377        0.03887716796514
C           -8.39659341483142        3.56965819147054        0.09456282463963
C           -7.01511972107882        3.60596125731714        0.15133794412879
C           -6.28024098387866        2.43395487191534        0.12671619547966
C           -6.91477696827919        1.19697420055583        0.03040816273415
C           -4.08759402021493        0.63273811169599       -1.04342579259764
C           -2.72480115392277        0.62736463818869       -1.05660633654339
C            1.98328718868253        0.00191010726957       -0.00720599429379
C            2.72472182162878        0.61935013093158       -1.06106071503580
C            4.08748285627492        0.62344612456573       -1.04849972569664
C            4.79721093800421       -0.00041347035566       -0.00369026465526
N            6.20475752208650       -0.00145252655254       -0.00187089961088
C            6.91514502268954        1.19426772472101        0.01623799600080
C            6.28138576686810        2.43268020772097        0.09885303295853
C            7.01686849171659        3.60450775069248        0.10931265550004
C            8.39828727528989        3.56688208776570        0.05200238483213
C            9.04825298809506        2.34364891303021        0.01047549217310
C            8.31910362990607        1.16745641245606        0.00115126192031
O            9.02805191922038       -0.00335149283943        0.00130598972102
C            8.31751670190735       -1.17320013444994        0.00067425708634
C            9.04512344125340       -2.35036422688505       -0.00614215957427
C            8.39363861172974       -3.57276908622216       -0.04822341807472
C            7.01230685851888       -3.60860078260581       -0.10864866289674
C            6.27835639251777       -2.43578999853931       -0.10077123718967
C            6.91355533654805       -1.19815123522731       -0.01759602653276
C            4.08389014078274       -0.62309723899703        1.03937001035476
C            2.72113832858801       -0.61676964439501        1.04848306637573
H           -2.17429735992246       -1.08165778372832        1.85457730324248
H           -4.63740070158666       -1.09083165401923        1.84148842538711
H           -5.20401816133503       -2.46929411470208       -0.19589913550031
H           -6.49667178614174       -4.54856256841356       -0.21974596328848
H           -8.96872524952662       -4.48143503512143       -0.10234202002845
H          -10.12216933728488       -2.28155739075312       -0.01290221360300
H          -10.12333950121660        2.28202296725032        0.02038276510097
H           -8.97081796027432        4.48239954982381        0.10932747354577
H           -6.49856690505066        4.55069256493042        0.22171066350708
H           -5.20489883664574        2.47206631723882        0.19331846043070
H           -4.64316008850653        1.09462635062997       -1.84787844406878
H           -2.18009856168268        1.08725814317338       -1.86770053956945
H            2.18015967804246        1.07399202683568       -1.87520916456511
H            4.64306145232157        1.07870780025648       -1.85671960666266
H            5.20614087750311        2.47227841749059        0.16594904989673
H            6.50080610314038        4.55024666645292        0.16893572431706
H            8.97297590509150        4.47944170366230        0.05556548947412
H           10.12429295687809        2.27750341076917       -0.00766292049622
H           10.12120599324617       -2.28562570190208        0.01437507649824
H            8.96712203676742       -4.48609202432101       -0.04975941707797
H            6.49512311544979       -4.55370100996744       -0.16868231161852
H            5.20322123541690       -2.47404310685106       -0.17031899337407
H            4.63668356968492       -1.07914532107652        1.84905162742290
H            2.17374781619788       -1.07044442465876        1.86127199541685
