66
 energy: -107.574852964391 gnorm: 0.000062985080 xtb: 6.7.1 (edcfbbe)
C            0.60394152237177       -0.00090365531110        0.00041863962718
C           -0.60376685993855       -0.00206393015025        0.00030759840507
C           -2.01623027386392       -0.00193037006667        0.00058919805491
C           -2.72028584340253       -0.89630744950442        0.80896746362283
C           -4.09958749197721       -0.89188057800414        0.81144115467131
C           -4.79929075311829       -0.00167754620101        0.00083840295367
N           -6.21113518886867       -0.00166825844604        0.00081773648961
C           -6.92038839065930        1.11386263474170        0.45012531053288
C           -6.28725272214512        2.24069016010332        0.95892319598535
C           -7.02264247789707        3.33178458155109        1.39732390359464
C           -8.40109854318870        3.31103315371803        1.34436446767731
C           -9.04955180325747        2.18132343766560        0.86646918644853
C           -8.32157706413617        1.09060863815381        0.43035041452731
O           -9.03434185283652       -0.00139314538183       -0.00000513217496
C           -8.32153600429485       -1.09361985132782       -0.42974357454070
C           -9.04948205319290       -2.18427770526877       -0.86605188790563
C           -8.40098746535481       -3.31421490230259       -1.34335145380512
C           -7.02250857775254       -3.33522925215673       -1.39556380639806
C           -6.28715289733360       -2.24417925482838       -0.95700136267308
C           -6.92034008773243       -1.11713458841965       -0.44874126120249
C           -4.09957370644776        0.88845391717919       -0.80984040299667
C           -2.72028170823257        0.89259290674320       -0.80765069547826
C            2.01641134392603       -0.00057540359281        0.00038765776635
C            2.72017982486798        0.92241007480323        0.77622067699291
C            4.09948167772108        0.91888330338371        0.77838632766378
C            4.79937968730352        0.00069510831348       -0.00016609363252
N            6.21127924491499        0.00153289326333       -0.00067728951764
C            6.92130345913746       -1.09575501250985        0.49025670249918
C            6.28887700737395       -2.20315097454736        1.04085323199356
C            7.02501898454261       -3.27636856962509        1.52021477173677
C            8.40346851385595       -3.25644735751683        1.46689914390735
C            9.05118370189741       -2.14507222784129        0.94682564875964
C            8.32247942474885       -1.07216876414337        0.46970599734332
O            9.03440752112211        0.00333317466145       -0.00169402952728
C            8.32077378077882        1.07800698176573       -0.47240256244684
C            9.04777096826652        2.15192507894859       -0.94984767588274
C            8.39827490604996        3.26255723430325       -1.46928653489743
C            7.01976670215556        3.28070305307174       -1.52167634601385
C            6.28533537113215        2.20645731628078       -1.04199412824811
C            6.91955446102931        1.09980026086688       -0.49197247549881
C            4.09999592899283       -0.91820330555130       -0.77833631327113
C            2.72069405660550       -0.92298732683069       -0.77564441158134
H           -2.17596420277473       -1.58521462008478        1.43785353625320
H           -4.64674409299177       -1.57661509960417        1.44274473502993
H           -5.21044803340635        2.26443693103056        1.02058774676207
H           -6.50349251727525        4.19568580027453        1.78323099569129
H           -8.97781888738078        4.15848761617321        1.67974508182406
H          -10.12570707862709        2.12479899152263        0.82868615878245
H          -10.12564669418131       -2.12752458417973       -0.82889877771176
H           -8.97767975986539       -4.16163643593557       -1.67886068537702
H           -6.50329965368623       -4.19930481650777       -1.78100096940265
H           -5.21032605557413       -2.26815070904394       -1.01813024604470
H           -4.64673558149996        1.57326107313394       -1.44105920928320
H           -2.17592167974769        1.58134156012131       -1.43667557964341
H            2.17560395507582        1.63295574404219        1.38032229148271
H            4.64650714650787        1.62603170355486        1.38459435942764
H            5.21206281945871       -2.22538850501584        1.10296767168089
H            6.50646195891373       -4.12556457299212        1.93822297315540
H            8.98077952997546       -4.09015960398640        1.83419137017327
H           10.12730814869850       -2.08925592337568        0.90716331572981
H           10.12399340266233        2.09748303199388       -0.91094876541241
H            8.97425796337279        4.09708252792417       -1.83681689626558
H            6.49982412443079        4.12929552966967       -1.93918857216360
H            5.20845478240153        2.22732957865484       -1.10340256384905
H            4.64742392487269       -1.62483426368886       -1.38478556374296
H            2.17653815745149       -1.63398943365718       -1.37958280064622
