66
 energy: -107.575991447677 gnorm: 0.000042776508 xtb: 6.7.1 (edcfbbe)
C            0.60406000544509        0.00457885881610       -0.01046482461264
C           -0.60424458531890        0.00439502015690       -0.00963078357432
C           -2.01335037810425        0.00358433758051       -0.00850733399394
C           -2.71760437861745       -0.55756395820020        1.06018712354937
C           -4.09622757584705       -0.55526165335809        1.06152565430916
C           -4.79761768724974        0.00181828076221       -0.00530379283698
N           -6.20910524025764        0.00109841324776       -0.00327779522837
C           -6.91767627627073       -1.20136989973305       -0.03985990633426
C           -6.28373112757517       -2.43371179969222       -0.13475334224554
C           -7.01826011725151       -3.60951826255259       -0.17099566917273
C           -8.39663377838571       -3.57298333136046       -0.12363023500947
C           -9.04594387893080       -2.34855019434969       -0.05865876753685
C           -8.31882826438375       -1.17380630172059       -0.02434537402949
O           -9.03229877533051       -0.00101346979370        0.00892932432801
C           -8.32028408859964        1.17283092985450        0.03559614297558
C           -9.04889812236725        2.34646192948689        0.07588611330750
C           -8.40099429696008        3.57193633917021        0.13477040989830
C           -7.02231859052249        3.61064044893040        0.16998462801580
C           -6.28629723552293        2.43596870534936        0.12782378390771
C           -6.91908405692908        1.20257942669530        0.03905138804747
C           -4.09941475340583        0.55960320839051       -1.07383259905950
C           -2.72074614415598        0.56369091855677       -1.07563113124907
C            2.01315841052815        0.00402988406379       -0.00948789640789
C            2.72047422727524        0.55304899737022       -1.08239373444005
C            4.09915744950010        0.54852515981013       -1.08095833062984
C            4.79751199619584        0.00173652495030       -0.00684828107756
N            6.20892923519102       -0.00015323253608       -0.00518760129753
C            6.92039566603476        1.20093446383487        0.02220704800845
C            6.28924517965679        2.43628486063009        0.09379047698867
C            7.02682052191228        3.61042675091498        0.12122150570817
C            8.40548220043480        3.56944580896638        0.08827989437992
C            9.05175550658248        2.34241668643417        0.04663295634593
C            8.32157662654089        1.16934202409751        0.02107009003826
O            9.03216627189236       -0.00562237097089        0.01130772151354
C            8.31730753026942       -1.17783290869443       -0.00830481383711
C            9.04304644911793       -2.35380164116163       -0.02668684254275
C            8.39236995543991       -3.57816621994080       -0.07739083948874
C            7.01403383715169       -3.61360493524883       -0.12680890904460
C            6.28091421392299       -2.43654921681129       -0.10657451574470
C            6.91616479571836       -1.20386073765273       -0.02572850311205
C            4.09613101962212       -0.54381933310667        1.06598733354552
C            2.71754059969295       -0.54605812624957        1.06487316468526
H           -2.17226590011331       -0.98638639657688        1.88787770003102
H           -4.64287939393916       -0.98165874785363        1.88991577401482
H           -5.20707525127604       -2.47609266518761       -0.18855461423117
H           -6.49856660337782       -4.55284823850720       -0.24020897983059
H           -8.97267806791282       -4.48451124143182       -0.14721856476646
H          -10.12209772838130       -2.28348942094823       -0.03885271354325
H          -10.12507764597867        2.27969611389460        0.06566619198373
H           -8.97823280735596        4.48256673865536        0.16314823485712
H           -6.50350789418452        4.55481035697889        0.23418959543360
H           -5.20929704378251        2.48013128995849        0.17228913444576
H           -4.64847898596584        0.98509436864182       -1.90108872190702
H           -2.17786172361452        0.99317977620918       -1.90458969277405
H            2.17754943075936        0.97398253948679       -1.91570627708554
H            4.64804321226126        0.96496303633250       -1.91292111382933
H            5.21226971376468        2.48261122956141        0.13647545484140
H            6.50918763119644        4.55605034766750        0.17215783939575
H            8.98393194076486        4.47959570150382        0.10519383595532
H           10.12785635481950        2.27401636004585        0.03880286567770
H           10.11923710606243       -2.28977828175348       -0.00585447900604
H            8.96732709883019       -4.49061375066150       -0.08840737870558
H            6.49328100979164       -4.55708337616841       -0.18518017586961
H            5.20431855806874       -2.47836524863365       -0.16189134527600
H            4.64285053697287       -0.96151243184668        1.89875579535870
H            2.17228135976381       -0.96610103706428        1.89710514290482
