  42
  -72.5623106821000       0.522389383104171      !
 N          6.1864688748       -1.8617744644       -1.8465505872
 C          6.0567911612       -0.9703112702       -1.1361566809
 C          5.9925684418        0.1435866468       -0.2702313353
 C          7.2554100283        0.7529146529       -0.0648518855
 N          8.2774661371        1.2443110322        0.0987150313
 C          4.8953676458        0.6546256911        0.3453303827
 C          3.5333316169        0.2024529881        0.2762010714
 C          3.0910061388       -0.9007472722       -0.4683424891
 C          1.7651603717       -1.2693276577       -0.4806204130
 C          0.8052619010       -0.5507825115        0.2368157829
 C         -0.5987793397       -0.9757753810        0.2351174673
 C         -0.8827359130       -2.3077292085        0.5326739222
 C         -2.1800529555       -2.7627765240        0.6210394558
 C         -3.2543227349       -1.8980794060        0.4018751383
 C         -4.6067050660       -2.3340636082        0.5068252771
 C         -5.6368194246       -1.4857745577        0.2832946333
 C         -5.4064447975       -0.1249013604       -0.0733140577
 C         -6.4541909592        0.7657993346       -0.3130886356
 C         -6.2001729563        2.0790320619       -0.6643215822
 C         -4.9004989531        2.5342319395       -0.7875746676
 C         -3.8220989384        1.6791773136       -0.5542336893
 C         -2.4700879579        2.1046065728       -0.6940583862
 C         -1.4367687541        1.2647564266       -0.4509503284
 C         -1.6532083708       -0.0825252350       -0.0339610485
 C         -2.9899428251       -0.5484951124        0.0597234817
 C         -4.0704389868        0.3339682959       -0.1878716113
 C          1.2225908713        0.5454355276        0.9920232407
 C          2.5521349344        0.8980333187        1.0032773273
 F          2.9210081952        1.9573021283        1.7510018533
 H          5.0631135306        1.5224146210        0.9740292344
 H          3.8030904032       -1.4701323147       -1.0428499476
 H          1.4543269474       -2.1174164216       -1.0715818608
 H         -0.0631776242       -2.9831684018        0.7320630915
 H         -2.3748046662       -3.7953650305        0.8715016650
 H         -4.7874181262       -3.3660885256        0.7716926013
 H         -6.6598009402       -1.8240889997        0.3665973507
 H         -7.4726353957        0.4167467033       -0.2211518497
 H         -7.0239720460        2.7536322976       -0.8464808301
 H         -4.7081844451        3.5598747371       -1.0677567311
 H         -2.2860131387        3.1213622645       -1.0107693323
 H         -0.4220194994        1.6053698794       -0.5927252819
 H          0.5210893923        1.1077416242        1.5888763121
  42
  -72.5622259931000       0.477610616895829      !
 N          5.2144228736        0.5181923225       -3.0662734555
 C          5.4347624661        0.4474818653       -1.9422989327
 C          5.7953949751        0.3844708014       -0.5785888686
 C          7.1799368985        0.5961505829       -0.3632112928
 N          8.2991129910        0.7659247874       -0.1856310665
 C          4.9813919899        0.1618560317        0.4848526121
 C          3.5647682935       -0.0776721438        0.4974501349
 C          2.7606627392       -0.1940835163       -0.6460215659
 C          1.4066705683       -0.4205878474       -0.5493364810
 C          0.7801908412       -0.5456943742        0.6942654429
 C         -0.6555950119       -0.8254796985        0.8031220571
 C         -1.0587838889       -1.9064371320        1.5856670431
 C         -2.3836539502       -2.2726699190        1.6767265769
 C         -3.3682528762       -1.5586185153        0.9908262545
 C         -4.7437200870       -1.9256137769        1.0484402811
 C         -5.6870018657       -1.2186092185        0.3842580096
 C         -5.3396194440       -0.0744728866       -0.3919364682
 C         -6.2970846603        0.6719951468       -1.0808937414
 C         -5.9312105338        1.7818132049       -1.8204286214
 C         -4.6075020984        2.1752230590       -1.8885903087
 C         -3.6162444920        1.4565878173       -1.2180929498
 C         -2.2458106525        1.8435905622       -1.2457570907
 C         -1.2961802716        1.1267287019       -0.6003585070
 C         -1.6224468781       -0.0551833977        0.1294262627
 C         -2.9870239146       -0.4327149802        0.2192577919
 C         -3.9786726871        0.3146118679       -0.4631207776
 C          1.5628669304       -0.4535665159        1.8445933607
 C          2.9141214958       -0.2213530288        1.7345191306
 F          3.6363212760       -0.1231409984        2.8681978766
 H          5.4581536283        0.1686146711        1.4585887532
 H          3.2133633636       -0.1120244839       -1.6206104299
 H          0.8199078017       -0.5285199875       -1.4489062113
 H         -0.3065380562       -2.4867323279        2.1005032256
 H         -2.6689817725       -3.1254230308        2.2753361437
 H         -5.0137703842       -2.7890502153        1.6396004320
 H         -6.7279717596       -1.5050819550        0.4315200844
 H         -7.3339396678        0.3721606995       -1.0301481205
 H         -6.6862025579        2.3473891437       -2.3467282802
 H         -4.3284745514        3.0464827194       -2.4634221535
 H         -1.9796296177        2.7370091327       -1.7924354505
 H         -0.2684561145        1.4576464881       -0.6154764759
 H          1.1194352552       -0.5415304712        2.8243598040
