  42
        -72.81231303
 N          5.1508201054        2.8192260584       -1.5433012554
 C          5.3956808481        1.8736989596       -0.9408977737
 C          5.7864272409        0.7407499610       -0.1942551799
 C          7.1790758261        0.7038677888        0.0652092515
 N          8.3048614286        0.6704585941        0.2759312156
 C          4.9933084466       -0.2543813480        0.2787588099
 C          3.5733457760       -0.4179030240        0.1327388898
 C          2.7412158277        0.4277427460       -0.6156646521
 C          1.3860227560        0.2047074584       -0.7031518831
 C          0.7862132076       -0.8762635625       -0.0501554096
 C         -0.6513987622       -1.1413329203       -0.1710713555
 C         -1.0554764047       -2.4154126040       -0.5671131678
 C         -2.3841532280       -2.7164663638       -0.7712785546
 C         -3.3715270756       -1.7488473555       -0.5748859772
 C         -4.7515627549       -2.0238201918       -0.7980594726
 C         -5.6972613992       -1.0775369779       -0.5956336766
 C         -5.3477064485        0.2284075974       -0.1433942900
 C         -6.3074566408        1.2179146730        0.0765411676
 C         -5.9391795026        2.4741450320        0.5223315575
 C         -4.6106576935        2.7728458328        0.7619750119
 C         -3.6170631989        1.8149726988        0.5525854208
 C         -2.2410168358        2.0776326993        0.8097458152
 C         -1.2895782777        1.1406917882        0.5880827417
 C         -1.6197602937       -0.1500779592        0.0773526611
 C         -2.9883549187       -0.4571579555       -0.1355344366
 C         -3.9821077896        0.5272819728        0.0899394576
 C          1.5966521945       -1.7419930762        0.6833463144
 C          2.9489014334       -1.5048118012        0.7675803860
 F          3.6986137567       -2.3540140853        1.4978081160
 H          5.4923929404       -1.0309114821        0.8474635052
 H          3.1727496848        1.2651005821       -1.1392153931
 H          0.7769055614        0.8606603687       -1.3063662840
 H         -0.3019350320       -3.1678635072       -0.7505951556
 H         -2.6706268904       -3.7062184032       -1.0957118921
 H         -5.0231251180       -3.0137773992       -1.1359330891
 H         -6.7417584688       -1.2937574194       -0.7693957110
 H         -7.3479960440        0.9910048673       -0.1060343262
 H         -6.6959892500        3.2270872995        0.6872478331
 H         -4.3296081999        3.7543574942        1.1155672321
 H         -1.9717699062        3.0494900783        1.1982115670
 H         -0.2567979832        1.3572440746        0.8170413574
 H          1.1743983819       -2.5869452452        1.2049487887
