  42
  -72.8123130300000       0.519416043611950      !
 N          5.1508201054        2.8192260584       -1.5433012554
 C          5.3956808481        1.8736989596       -0.9408977737
 C          5.7864272409        0.7407499610       -0.1942551799
 C          7.1790758261        0.7038677888        0.0652092515
 N          8.3048614286        0.6704585941        0.2759312156
 C          4.9933084466       -0.2543813480        0.2787588099
 C          3.5733457760       -0.4179030240        0.1327388898
 C          2.7412158277        0.4277427460       -0.6156646521
 C          1.3860227560        0.2047074584       -0.7031518831
 C          0.7862132076       -0.8762635625       -0.0501554096
 C         -0.6513987622       -1.1413329203       -0.1710713555
 C         -1.0554764047       -2.4154126040       -0.5671131678
 C         -2.3841532280       -2.7164663638       -0.7712785546
 C         -3.3715270756       -1.7488473555       -0.5748859772
 C         -4.7515627549       -2.0238201918       -0.7980594726
 C         -5.6972613992       -1.0775369779       -0.5956336766
 C         -5.3477064485        0.2284075974       -0.1433942900
 C         -6.3074566408        1.2179146730        0.0765411676
 C         -5.9391795026        2.4741450320        0.5223315575
 C         -4.6106576935        2.7728458328        0.7619750119
 C         -3.6170631989        1.8149726988        0.5525854208
 C         -2.2410168358        2.0776326993        0.8097458152
 C         -1.2895782777        1.1406917882        0.5880827417
 C         -1.6197602937       -0.1500779592        0.0773526611
 C         -2.9883549187       -0.4571579555       -0.1355344366
 C         -3.9821077896        0.5272819728        0.0899394576
 C          1.5966521945       -1.7419930762        0.6833463144
 C          2.9489014334       -1.5048118012        0.7675803860
 F          3.6986137567       -2.3540140853        1.4978081160
 H          5.4923929404       -1.0309114821        0.8474635052
 H          3.1727496848        1.2651005821       -1.1392153931
 H          0.7769055614        0.8606603687       -1.3063662840
 H         -0.3019350320       -3.1678635072       -0.7505951556
 H         -2.6706268904       -3.7062184032       -1.0957118921
 H         -5.0231251180       -3.0137773992       -1.1359330891
 H         -6.7417584688       -1.2937574194       -0.7693957110
 H         -7.3479960440        0.9910048673       -0.1060343262
 H         -6.6959892500        3.2270872995        0.6872478331
 H         -4.3296081999        3.7543574942        1.1155672321
 H         -1.9717699062        3.0494900783        1.1982115670
 H         -0.2567979832        1.3572440746        0.8170413574
 H          1.1743983819       -2.5869452452        1.2049487887
  42
  -72.8122396000000       0.480583956388050      !
 N          6.1085493457        0.4344717883       -2.7649972012
 C          6.0109925463        0.3893366986       -1.6227940963
 C          5.9863645064        0.3512302023       -0.2111775811
 C          7.2641466058        0.5570144055        0.3660190736
 N          8.2982026016        0.7246612652        0.8301806354
 C          4.9128003447        0.1492685968        0.5954191091
 C          3.5417718997       -0.0739633255        0.2282275092
 C          3.0630460880       -0.1313950702       -1.0888036021
 C          1.7309749458       -0.3506043535       -1.3560170155
 C          0.8006588471       -0.5105777814       -0.3257998756
 C         -0.6103263499       -0.7723649920       -0.6300068103
 C         -0.9108070327       -1.8035079688       -1.5186730573
 C         -2.2135706942       -2.1547891406       -1.7967313537
 C         -3.2771821743       -1.4746197558       -1.2001662774
 C         -4.6342702089       -1.8284116191       -1.4515188375
 C         -5.6541346531       -1.1540891517       -0.8719831794
 C         -5.4080620812       -0.0586761840        0.0065023389
 C         -6.4451767115        0.6537167864        0.6110692045
 C         -6.1761871794        1.7167647745        1.4537100125
 C         -4.8718675615        2.0962589926        1.7111692110
 C         -3.8036313502        1.4104159801        1.1306489476
 C         -2.4479030575        1.7860444182        1.3528622793
 C         -1.4242358468        1.1009771764        0.7916255301
 C         -1.6547503146       -0.0349098691       -0.0405509794
 C         -2.9969850654       -0.3972659485       -0.3231596568
 C         -4.0671611373        0.3162815125        0.2710542344
 C          1.2545208799       -0.4660753100        0.9926175652
 C          2.5899833453       -0.2554806574        1.2462495197
 F          2.9945862444       -0.2272338038        2.5318266156
 H          5.1102449656        0.1583222406        1.6619050247
 H          3.7515712037       -0.0001884494       -1.9073633946
 H          1.3917186207       -0.3795428604       -2.3803095082
 H         -0.0989173184       -2.3576772146       -1.9674285277
 H         -2.4206880958       -2.9699072322       -2.4746571974
 H         -4.8270134834       -2.6546862471       -2.1208525428
 H         -6.6807359265       -1.4299114878       -1.0666599630
 H         -7.4672335310        0.3646138815        0.4127297218
 H         -6.9919342761        2.2565231287        1.9121094051
 H         -4.6679926337        2.9311829705        2.3659722134
 H         -2.2532615529        2.6450621134        1.9791088626
 H         -0.4071681784        1.4251972110        0.9537626286
 H          0.5769633959       -0.6193908879        1.8184118796
