88
 energy: -129.641413081248 gnorm: 0.000032552405 xtb: 6.7.1 (edcfbbe)
C          -10.21425897599866       -0.61500577604541       -0.90284067877533
C           -9.00485534017223       -1.17678450989167       -0.13331497836798
C           -9.39636006400188       -2.46979735483110        0.60514066805218
C           -8.55958704032937       -0.15085983131662        0.89139422435674
C           -9.44519621212017        0.25411102153573        1.88076502694504
C           -9.09022220703395        1.16811112917265        2.85524042620580
C           -7.80919751317373        1.68933888795197        2.85799912465818
C           -6.90922204370338        1.30492908154817        1.88666315164479
C           -7.27306902459175        0.39766453054305        0.88728389701980
N           -6.34760857639855        0.03345583088815       -0.07958459393632
C           -5.05647988020011        0.62105109262632       -0.05457934250221
C           -4.87213911323170        1.92801613926221       -0.49492585576488
C           -3.61427947984210        2.49281355754670       -0.47088283086995
C           -2.51453805646521        1.76389385598486       -0.01629869575833
C           -1.19371054747190        2.40194264320004       -0.01972745505658
C           -0.00028279526307        1.68081368979728       -0.01322556876162
C            1.19318022375471        2.40187825105232       -0.02117684496199
C            2.51403904813745        1.76394949519880       -0.01278507667984
C            3.61424094987180        2.50216081052657        0.42542291887219
C            4.87226916213807        1.93824458533464        0.45920396353899
C            5.05634244890361        0.62263801445551        0.04524952391049
N            6.34770302734234        0.03608567632827        0.07992165867939
C            6.65079377594350       -0.86338240512976        1.09067213835256
C            5.69792081016919       -1.14709584299359        2.07362215604373
C            5.96774354124416       -2.04232453254866        3.08702071993866
C            7.19991193044106       -2.66771349605112        3.14354987061055
C            8.15176644900972       -2.37153935658719        2.18572297311938
C            7.90758550311618       -1.47384680245238        1.15545264979186
C            9.00505182988981       -1.17297793716629        0.15264676253774
C           10.21580255713520       -0.59655413210282        0.90910827637844
C            9.39520488824240       -2.48006070862710       -0.56135775036101
C            8.55809297196859       -0.16702923314728       -0.89095331950494
C            9.44208105337801        0.21867934126388       -1.88943171406820
C            9.08547914945268        1.11355045861511       -2.88091460630001
C            7.80439269615062        1.63451618452740       -2.89176876501831
C            6.90601639666561        1.26902526036032       -1.91168937346009
C            7.27155171364446        0.38143958748518       -0.89539461648081
C            3.96792642535828       -0.11484634196748       -0.40824373894121
C            2.70827481840694        0.44985219988872       -0.43570463896640
N            1.17777435563142        3.73871638480714       -0.02043970872174
C           -0.00025816227044        4.32491190372608       -0.03929079370082
N           -1.17831685009379        3.73849644561810       -0.04677451351350
C           -2.70908946177088        0.45871015463792        0.43321758637565
C           -3.96859173515435       -0.10672513775723        0.41554717506212
C           -6.64900551809331       -0.88545483012098       -1.07319910865620
C           -5.69443646406605       -1.18827164104090       -2.04877563111103
C           -5.96258270848969       -2.10298001946139       -3.04507995836855
C           -7.19471576032971       -2.72925918300067       -3.09161542883155
C           -8.14818930168063       -2.41453726233930       -2.14134118882333
C           -7.90571196254893       -1.49704948674199       -1.12825125207142
H           -9.92920649390520        0.29662838784244       -1.42479640486810
H          -10.57528979560026       -1.33088492353280       -1.63603475837378
H          -11.03077578039495       -0.38104231464764       -0.22536629826833
H           -8.53823063969150       -2.85851922168273        1.15043715981027
H           -9.73098489452206       -3.23045657155194       -0.09479618240595
H          -10.19778044594100       -2.28450536044649        1.31490109543504
H          -10.44428291936086       -0.15456323726534        1.89782544780879
H           -9.80499826237297        1.46285646914383        3.60832351629409
H           -7.50544646502060        2.39414013464530        3.61758114811880
H           -5.90838908381403        1.70833205465940        1.90302320850529
H           -5.72229575619083        2.49082039975830       -0.85082152057606
H           -3.45566401147115        3.50519812699152       -0.80732851296264
H           -0.00035134868466        0.60409678545043       -0.00257789032604
H            3.45586316269935        3.52117087241496        0.74135006830965
H            5.72278622096269        2.50839333497149        0.80232087224887
H            4.73831368625221       -0.65397414394638        2.04429250444167
H            5.21441234571748       -2.24656015082549        3.83333714847268
H            7.42278211496656       -3.37260031360936        3.92991556426383
H            9.11408921011370       -2.85663689649063        2.24944609429322
H            9.93169985685785        0.32501162915610        1.41385841360120
H           10.57805430889750       -1.29817944454363        1.65536052963099
H           11.03116973999949       -0.37578735392987        0.22584667268774
H            8.53612387338217       -2.87914868551954       -1.09759405219987
H            9.73095224330338       -3.22709527822015        0.15257589472103
H           10.19543609298185       -2.30860178163279       -1.27592088052348
H           10.44115310316372       -0.19024393272348       -1.90017914544665
H            9.79902264049513        1.39364394639691       -3.64072790985111
H            7.49934411690189        2.32437958070219       -3.66443152534739
H            5.90511807104186        1.67195123425717       -1.93434991239734
H            4.12013665711365       -1.13193622969130       -0.73840004377363
H            1.88116342186132       -0.13133201618144       -0.81446769110681
H           -0.00023875339490        5.40830050052212       -0.04989873164701
H           -1.88235460058073       -0.11437336839751        0.82493487097260
H           -4.12107276587720       -1.11688629827930        0.76621038301145
H           -4.73482085475825       -0.69476129839659       -2.02732899329596
H           -5.20796392061322       -2.32172355618683       -3.78596513265360
H           -7.41628501273342       -3.44925662450744       -3.86454378657420
H           -9.11042999330641       -2.90075484729129       -2.19729208379955
