88
 energy: -129.574666823539 gnorm: 0.000155871830 xtb: 6.7.1 (edcfbbe)
C          -10.41760504789138       -0.08498558458547        0.45633116852579
C           -9.12587061136560       -0.00843295129243        1.29163222533449
C           -9.46625757759487        0.07166085614198        2.79157630037687
C           -8.36715653722956        1.24322909620456        0.89879255490799
C           -8.96299494513605        2.48645247510055        1.05814497890732
C           -8.31414150212019        3.65912933879374        0.71762000334542
C           -7.02977267069185        3.60122931458014        0.20231525385570
C           -6.41323935995590        2.38156101343528        0.03303972735239
C           -7.06824795016568        1.19159686025440        0.37469522871812
N           -6.42275138638182       -0.01419428950308        0.19245372705927
C           -5.10416621877100       -0.01738304797931       -0.34949545231717
C           -4.91162752530309       -0.05224502981993       -1.72988351463214
C           -3.63946799777719       -0.05484389727428       -2.24629985880625
C           -2.50748587822678       -0.02426194866898       -1.40748948412791
C           -1.20166018090940       -0.02944861422852       -2.00875636077622
C            0.00039629605611       -0.01788906503458       -1.30605559152522
C            1.20253227471828       -0.02257429530054       -2.00877474350386
C            2.50826853523518       -0.01291123843963       -1.40744462591711
C            3.64038973531664        0.00082294774935       -2.24653174040690
C            4.91245693019162        0.01178394847212       -1.72997725401523
C            5.10474200519488        0.00771679457057       -0.34911249046138
N            6.42296166880632        0.01892296790328        0.19357862162871
C            7.01278047287096        1.22981611708042        0.49297305056740
C            6.30812673879229        2.41649219162428        0.25410449651526
C            6.86686606362474        3.64095458109728        0.54539311777965
C            8.14241385824851        3.70703417709951        1.08121341854664
C            8.84253355243669        2.53767158688706        1.31478924713413
C            8.30575134726030        1.28980289858858        1.03067847931295
C            9.12164050330722        0.04217519719233        1.30335058864715
C           10.41789818211667        0.11036754001127        0.47437066580921
C            9.45359073661183       -0.01210011701400        2.80635951183095
C            8.36998567632801       -1.21877896290670        0.92700026286434
C            8.97039668614551       -2.45676117913191        1.10848404739230
C            8.32770030586564       -3.63748650803838        0.78450535397535
C            7.04484728826378       -3.59331560368052        0.26409253612278
C            6.42377014059128       -2.37915205321227        0.07324375607453
C            7.07274748570400       -1.18106400950449        0.39760129946052
C            4.00019064643754       -0.00765829330705        0.49887581584878
C            2.72527701981972       -0.01741699556842       -0.01846491158313
N            1.15527240188463       -0.03703201765764       -3.38325910220353
C            0.00049862049272       -0.04925818832441       -3.98900050681980
N           -1.15439059322829       -0.04715185530308       -3.38324186918877
C           -2.72472880192038        0.01098271951756       -0.01898622880085
C           -3.99975935347184        0.01464949675675        0.49820817400669
C           -7.01812437394311       -1.21755670780449        0.51061093600529
C           -6.31660896650101       -2.41068109368161        0.29587000817715
C           -6.88104121121135       -3.62789303917606        0.60597392469514
C           -8.15929264032699       -3.68011843156522        1.13685320291679
C           -8.85613351170157       -2.50437531912248        1.34705273052719
C           -8.31347536196338       -1.26353871112394        1.04395420825587
H          -10.17094902589843       -0.14134877812141       -0.60222018965757
H          -10.99837431622285       -0.96424929078797        0.72049798468259
H          -11.03637126438356        0.79315635196342        0.61813069496020
H          -10.02497463647678       -0.80410720139493        3.10946620225240
H          -10.06342300780036        0.95327345583159        3.00684978672161
H           -8.55008786524360        0.12591205370655        3.37663820493789
H           -9.96313758785802        2.54891127323289        1.45959914361525
H           -8.80731878074253        4.60934691959818        0.85426384377936
H           -6.50772898806146        4.50664248264871       -0.06804895025832
H           -5.41275905327725        2.33678158893299       -0.36786008472258
H           -5.77260488580326       -0.07656793333069       -2.38225632452742
H           -3.47772225680853       -0.08141796537334       -3.31284505512571
H            0.00038248166198       -0.00514649648937       -0.22902676505687
H            3.47881752667781        0.00364545597646       -3.31343581484927
H            5.77352432237099        0.02317122998399       -2.38258881393625
H            5.31544724149724        2.36537833806948       -0.16501522286711
H            6.30685956166280        4.54375714798293        0.35369485623971
H            8.59000017984882        4.66105490574602        1.31427493914123
H            9.83632147043475        2.60652390745241        1.73070219929567
H           10.17715681855463        0.14965768309460       -0.58630012195059
H           10.99423018632508        0.99552538422975        0.72833071745950
H           11.03870234199571       -0.76300047977705        0.65315990383890
H           10.05222189231695       -0.88815322746650        3.03952498931425
H            8.53423629823284       -0.05964839999005        3.38699378026757
H           10.00769001615169        0.87062854868440        3.11289823337126
H            9.96927991642764       -2.50855310913412        1.51456516951107
H            8.82434758074858       -4.58329261154333        0.93812246258557
H            6.52740078113363       -4.50517229296852        0.00687752043815
H            5.42430971790349       -2.34509622596174       -0.33122572953118
H            4.15751555446095       -0.01167000774166        1.56816013950921
H            1.89059908808754       -0.03069804362817        0.66459060087316
H            0.00053217139398       -0.06193008037102       -5.07160631107579
H           -1.89014027371629        0.03761142328607        0.66379209909887
H           -4.15723410314589        0.04229582555091        1.56711873731582
H           -5.32179554525265       -2.37037678600862       -0.11935696307941
H           -6.32334440868786       -4.53585607122448        0.43280990009490
H           -8.61143271190810       -4.62834302296881        1.38433254439343
H           -9.85206598721412       -2.56247367306789        1.75947857940519
