88
 energy: -129.574292742999 gnorm: 0.000105110634 xtb: 6.7.1 (edcfbbe)
C          -10.36462928611749       -0.57289587625448       -0.71630415636656
C           -9.10562144601458       -1.32139711499794       -0.24002313431089
C           -9.47151115027674       -2.75040736871274        0.20302295815783
C           -8.51875622836379       -0.58411793767474        0.94657694114822
C           -9.28117358876451       -0.41501088901242        2.09390209454210
C           -8.78899048314801        0.23182210444757        3.21242847029814
C           -7.49241401400953        0.71862704907029        3.20022280803133
C           -6.71301018897529        0.56644626362725        2.07517053147751
C           -7.21424725151202       -0.07149027913086        0.93321446586471
N           -6.41234721597637       -0.19650520842603       -0.18385853285502
C           -5.09757093599441        0.35086415340034       -0.15580262324310
C           -4.90094524446716        1.72118877672255       -0.32399174458311
C           -3.63166430629306        2.24355759651531       -0.28891397866313
C           -2.50525443861113        1.41934098951688       -0.09598968357143
C           -1.20069605107755        2.02269060096278       -0.07063705334245
C            0.00000379146517        1.31976615215761       -0.01689012977161
C            1.20137669820897        2.02288573465746        0.01578490592256
C            2.50540099484731        1.41941279449672        0.05841392618867
C            3.63268221409829        2.24805289221825        0.22566028296552
C            4.90159197962082        1.72593857073289        0.27473553432182
C            5.09702835265642        0.35108388733342        0.14681708151637
N            6.41145083356118       -0.19612355034877        0.18859879292356
C            6.84751370334943       -0.80536491846811        1.34828137346366
C            6.00329101222697       -0.84778853179861        2.46527951462131
C            6.40249876727326       -1.46241663984496        3.63115169204378
C            7.65688948406581       -2.04424360925270        3.70982385998951
C            8.50087957649812       -1.98696570604701        2.61613757386345
C            8.12655050082240       -1.37293185452378        1.42909918927413
C            9.10411754076320       -1.32092776011810        0.27256245271015
C           10.36361528555033       -0.56142165245599        0.72973649000492
C            9.46912593487627       -2.76081392223370       -0.13453539698592
C            8.51742469325528       -0.61342629599938       -0.93211245530954
C            9.27980870377005       -0.47375176907524       -2.08342588765836
C            8.78768753656702        0.14447741200816       -3.21803173142237
C            7.49111307315185        0.63139647477885       -3.21821449083166
C            6.71178101760110        0.50812325469078       -2.08955768673225
C            7.21312476853719       -0.10017519455660       -0.93160620206959
C            3.99665368923471       -0.48528016235555       -0.02763840137482
C            2.72442406543470        0.03645453730426       -0.06807399371353
N            1.15466825401623        3.39730156870103        0.00776863161851
C            0.00124518802102        4.00259649741184       -0.05701066293832
N           -1.15277971999242        3.39668901742520       -0.10362350718403
C           -2.72552606122513        0.04096007428008        0.07152068594056
C           -3.99812750497573       -0.48078737372573        0.04495843105600
C           -6.84838252290471       -0.83474510670981       -1.32777645334852
C           -6.00354796796351       -0.90658210356348       -2.44282868282297
C           -6.40287092262225       -1.55006446221387       -3.59296460610907
C           -7.65794723190690       -2.13217385575478       -3.65757485731969
C           -8.50234410075689       -2.04648484875625       -2.56605622334766
C           -8.12790815335543       -1.40308199309020       -1.39471955890638
H          -10.09958792830666        0.43558213184178       -1.02821302710309
H          -10.82321576550778       -1.08294173106191       -1.55876292111975
H          -11.09942985443080       -0.50365429577885        0.08081818937479
H           -8.57829185266732       -3.27380772718225        0.53893810340406
H           -9.90934233794310       -3.31087111035040       -0.61816437357654
H          -10.18576825712371       -2.73136987350791        1.02134945620285
H          -10.28984471313453       -0.79849381356423        2.12271292475742
H           -9.41026712209930        0.34859101768707        4.08716116981324
H           -7.08685046551335        1.21627441499551        4.06811370386365
H           -5.70135527289100        0.94037482597076        2.07093124834576
H           -5.75722931372297        2.36196865506312       -0.47825487058794
H           -3.46834404500772        3.30267343223451       -0.41513620330342
H           -0.00048090169802        0.24269460594180       -0.00086727914886
H            3.47033453207153        3.31057247686813        0.32059723821729
H            5.75853192984014        2.37034854481010        0.40892087231810
H            5.02909394963059       -0.38825434411613        2.40914616767894
H            5.73472583474484       -1.48566430458411        4.47908292731549
H            7.97895726620817       -2.53231393826652        4.61692460479158
H            9.47981614977930       -2.43469319971059        2.69688878220565
H           10.09918409873699        0.45470377621652        1.01631960726443
H           10.82205578364487       -1.05045131753617        1.58464256461816
H           11.09832224130731       -0.51258862701862       -0.06897879248691
H            8.57555941809070       -3.29197092276099       -0.45708990507939
H            9.90677985693314       -3.30074965625300        0.70038175839763
H           10.18325880920798       -2.76271610554919       -0.95318728609981
H           10.28838576602631       -0.85808247721199       -2.10252634854403
H            9.40894590122599        0.23887490143074       -4.09546916335012
H            7.08543958200790        1.10657821340426       -4.09855422603766
H            5.70009072622161        0.88191324728620       -2.09503087371475
H            4.15563538053931       -1.54930495385393       -0.13168749101675
H            1.89376224318182       -0.63606259739245       -0.21397727032187
H            0.00173114784778        5.08513786529264       -0.07322582964486
H           -1.89557495576367       -0.62753737573553        0.23847221725893
H           -4.15811771408411       -1.54112844904802        0.18034870141678
H           -5.02876973611707       -0.44706203615281       -2.39767327168385
H           -5.73466552355511       -1.59563399010806       -4.43964880440704
H           -7.98015508284088       -2.64258483238360       -4.55224873835215
H           -9.48168303996033       -2.49516548356050       -2.63592393277904
