  69
       -116.05402031
 C          7.4435836714       -2.1034189027        2.7572258252
 C          6.0621509201       -2.0567051926        2.8412571236
 C          5.3351432199       -1.2372012844        1.9973235716
 C          5.9812311684       -0.4519868795        1.0453112755
 C          7.3847096396       -0.4914423505        0.9809877617
 C          8.1043688289       -1.3151842223        1.8293794316
 O          8.0930502821        0.2756446707        0.0978381430
 C          7.3896972686        1.0844655429       -0.7513047803
 C          8.1150828835        1.8476346550       -1.6501104104
 C          7.4590150758        2.6716226550       -2.5497342747
 C          6.0751939975        2.7208134814       -2.5550824092
 C          5.3426373968        1.9629549349       -1.6596908281
 C          5.9852833946        1.1432753932       -0.7349635031
 N          5.2833383174        0.3749219760        0.1798674996
 C          3.8640162039        0.4045785134        0.2055901685
 C          3.2099718181        1.5259552168        0.7092076293
 C          1.8265426983        1.6366487606        0.7609035925
 C          1.0616337976        0.5724205717        0.2841931650
 C          1.7368126307       -0.5687310052       -0.2256568542
 C          0.8372830514       -1.5607979050       -0.6733466327
 C          1.3445599308       -2.7361360947       -1.2098535587
 C          2.7297563678       -2.8770977329       -1.2841272800
 C          3.6117298877       -1.9043386873       -0.8454413864
 C          3.1260052129       -0.7027602992       -0.2901558266
 C         -0.4785720378       -1.0394773152       -0.4396099897
 N         -1.6569138621       -1.5286615323       -0.6583838770
 C         -2.7508721257       -0.8199894291       -0.3475903498
 C         -4.0327235361       -1.3184822101       -0.5781869361
 C         -5.1671833152       -0.5886447451       -0.2722801854
 C         -6.4827333139       -1.1448182749       -0.6076684798
 C         -7.4512393296       -0.3900249312       -1.2710742939
 C         -8.6643425022       -0.9809373085       -1.5752661921
 N         -8.9676246828       -2.2333631288       -1.2735037404
 C         -8.0476323079       -2.9547826727       -0.6538648809
 C         -6.8002123712       -2.4693389577       -0.3042708482
 C         -5.0293819979        0.6954886564        0.3111021683
 C         -6.2039949936        1.4718110121        0.7346947942
 C         -6.3279750039        2.8219378437        0.4104676072
 C         -7.4456935203        3.5123335451        0.8461853248
 N         -8.4092174078        2.9642142336        1.5677491881
 C         -8.2865668931        1.6866934187        1.8889296866
 C         -7.2162628795        0.8987636519        1.5039238270
 C         -3.7731817056        1.2134455655        0.5429180333
 C         -2.6070011597        0.4990157208        0.2310360193
 N         -1.3975541133        0.9981618679        0.4595284648
 C         -0.3269268194        0.3050489193        0.1598961828
 H          8.0094551500       -2.7449479163        3.4137100046
 H          5.5419319549       -2.6597853193        3.5690398319
 H          4.2600312004       -1.1978329897        2.0701765428
 H          9.1793052514       -1.3216214949        1.7468868565
 H          9.1907243725        1.7777832306       -1.6297468172
 H          8.0295123930        3.2647396100       -3.2462764328
 H          5.5571707160        3.3504310420       -3.2615297945
 H          4.2648197685        1.9960463558       -1.6725339748
 H          3.8169335130        2.3416125492        1.0776758641
 H          1.3613808770        2.5224487436        1.1626300863
 H          0.6896275892       -3.5173382520       -1.5623030625
 H          3.1333568557       -3.7872892569       -1.7041644535
 H          4.6758880410       -2.0702333405       -0.9306573034
 H         -4.1188758709       -2.2907309953       -1.0391433493
 H         -7.2532744899        0.6316089463       -1.5558198673
 H         -9.4376708744       -0.4254786012       -2.0898022469
 H         -8.3311859288       -3.9744255291       -0.4265015817
 H         -6.0907449379       -3.0966237981        0.2138767998
 H         -5.5744170664        3.3122838713       -0.1870940359
 H         -7.5816562537        4.5589341320        0.6060642540
 H         -9.0904933935        1.2768144113        2.4863470479
 H         -7.1604621165       -0.1362233749        1.8034143658
 H         -3.6589357326        2.1818539965        1.0058101289
