  69
  -115.661774908400       0.338054315384114      !
 C          7.4435836714       -2.1034189027        2.7572258252
 C          6.0621509201       -2.0567051926        2.8412571236
 C          5.3351432199       -1.2372012844        1.9973235716
 C          5.9812311684       -0.4519868795        1.0453112755
 C          7.3847096396       -0.4914423505        0.9809877617
 C          8.1043688289       -1.3151842223        1.8293794316
 O          8.0930502821        0.2756446707        0.0978381430
 C          7.3896972686        1.0844655429       -0.7513047803
 C          8.1150828835        1.8476346550       -1.6501104104
 C          7.4590150758        2.6716226550       -2.5497342747
 C          6.0751939975        2.7208134814       -2.5550824092
 C          5.3426373968        1.9629549349       -1.6596908281
 C          5.9852833946        1.1432753932       -0.7349635031
 N          5.2833383174        0.3749219760        0.1798674996
 C          3.8640162039        0.4045785134        0.2055901685
 C          3.2099718181        1.5259552168        0.7092076293
 C          1.8265426983        1.6366487606        0.7609035925
 C          1.0616337976        0.5724205717        0.2841931650
 C          1.7368126307       -0.5687310052       -0.2256568542
 C          0.8372830514       -1.5607979050       -0.6733466327
 C          1.3445599308       -2.7361360947       -1.2098535587
 C          2.7297563678       -2.8770977329       -1.2841272800
 C          3.6117298877       -1.9043386873       -0.8454413864
 C          3.1260052129       -0.7027602992       -0.2901558266
 C         -0.4785720378       -1.0394773152       -0.4396099897
 N         -1.6569138621       -1.5286615323       -0.6583838770
 C         -2.7508721257       -0.8199894291       -0.3475903498
 C         -4.0327235361       -1.3184822101       -0.5781869361
 C         -5.1671833152       -0.5886447451       -0.2722801854
 C         -6.4827333139       -1.1448182749       -0.6076684798
 C         -7.4512393296       -0.3900249312       -1.2710742939
 C         -8.6643425022       -0.9809373085       -1.5752661921
 N         -8.9676246828       -2.2333631288       -1.2735037404
 C         -8.0476323079       -2.9547826727       -0.6538648809
 C         -6.8002123712       -2.4693389577       -0.3042708482
 C         -5.0293819979        0.6954886564        0.3111021683
 C         -6.2039949936        1.4718110121        0.7346947942
 C         -6.3279750039        2.8219378437        0.4104676072
 C         -7.4456935203        3.5123335451        0.8461853248
 N         -8.4092174078        2.9642142336        1.5677491881
 C         -8.2865668931        1.6866934187        1.8889296866
 C         -7.2162628795        0.8987636519        1.5039238270
 C         -3.7731817056        1.2134455655        0.5429180333
 C         -2.6070011597        0.4990157208        0.2310360193
 N         -1.3975541133        0.9981618679        0.4595284648
 C         -0.3269268194        0.3050489193        0.1598961828
 H          8.0094551500       -2.7449479163        3.4137100046
 H          5.5419319549       -2.6597853193        3.5690398319
 H          4.2600312004       -1.1978329897        2.0701765428
 H          9.1793052514       -1.3216214949        1.7468868565
 H          9.1907243725        1.7777832306       -1.6297468172
 H          8.0295123930        3.2647396100       -3.2462764328
 H          5.5571707160        3.3504310420       -3.2615297945
 H          4.2648197685        1.9960463558       -1.6725339748
 H          3.8169335130        2.3416125492        1.0776758641
 H          1.3613808770        2.5224487436        1.1626300863
 H          0.6896275892       -3.5173382520       -1.5623030625
 H          3.1333568557       -3.7872892569       -1.7041644535
 H          4.6758880410       -2.0702333405       -0.9306573034
 H         -4.1188758709       -2.2907309953       -1.0391433493
 H         -7.2532744899        0.6316089463       -1.5558198673
 H         -9.4376708744       -0.4254786012       -2.0898022469
 H         -8.3311859288       -3.9744255291       -0.4265015817
 H         -6.0907449379       -3.0966237981        0.2138767998
 H         -5.5744170664        3.3122838713       -0.1870940359
 H         -7.5816562537        4.5589341320        0.6060642540
 H         -9.0904933935        1.2768144113        2.4863470479
 H         -7.1604621165       -0.1362233749        1.8034143658
 H         -3.6589357326        2.1818539965        1.0058101289
  69
  -115.661449764300       0.239640712306373      !
 C          7.6923779797       -0.8121326902        3.4865786851
 C          6.3138124124       -0.8726182589        3.6026261618
 C          5.5036713666       -0.5129778307        2.5408701216
 C          6.0616881189       -0.0789406902        1.3407733144
 C          7.4623333642       -0.0424253240        1.2254752892
 C          8.2655681061       -0.4021702664        2.2939931978
 O          8.0870074391        0.3334701037        0.0684246166
 C          7.3021651079        0.6939201029       -0.9918687509
 C          7.9435980334        1.0781837037       -2.1570913852
 C          7.2035042446        1.4717628703       -3.2598295944
 C          5.8207721758        1.4914427405       -3.1889434149
 C          5.1718246017        1.1094825960       -2.0289972450
 C          5.8987742054        0.6910811727       -0.9167462889
 N          5.2806435256        0.2950037002        0.2594833060
 C          3.8635996079        0.2808713814        0.3448104390
 C          3.2117361637        1.2454675559        1.1087845353
 C          1.8288460111        1.3246317781        1.2095338232
 C          1.0621315597        0.3964290541        0.5058652321
 C          1.7348773841       -0.5916654722       -0.2612797705
 C          0.8332717025       -1.4561839452       -0.9201731158
 C          1.3389893801       -2.4825510284       -1.7060262949
 C          2.7240437864       -2.6090126274       -1.8056952896
 C          3.6076397578       -1.7542461529       -1.1691497755
 C          3.1236518701       -0.6980898781       -0.3701187507
 C         -0.4814492371       -0.9959743434       -0.5776442790
 N         -1.6610283096       -1.3981491069       -0.9291044778
 C         -2.7527627729       -0.7664412419       -0.4774632363
 C         -4.0346984681       -1.1532463842       -0.8684751814
 C         -5.1654329243       -0.4956292579       -0.4192549442
 C         -6.4760578916       -0.8839610535       -0.9519380831
 C         -7.3837655998        0.0693934365       -1.4166144135
 C         -8.5945568059       -0.3569047480       -1.9313556751
 N         -8.9504974420       -1.6290482109       -2.0130078635
 C         -8.0879555758       -2.5357780952       -1.5833220923
 C         -6.8482734440       -2.2247660320       -1.0533497893
 C         -5.0265683290        0.5781861415        0.4957688711
 C         -6.2023947888        1.2330370679        1.0866996462
 C         -6.2899948603        2.6222617128        1.1655528306
 C         -7.4112975595        3.1880419594        1.7472195796
 N         -8.4124812336        2.4820669438        2.2459913849
 C         -8.3252849101        1.1632946207        2.1849467083
 C         -7.2545409411        0.4908660635        1.6229634679
 C         -3.7700566314        0.9868248619        0.8885445152
 C         -2.6061791233        0.3593887583        0.4207240306
 N         -1.3957925274        0.7704018510        0.7818674863
 C         -0.3271470156        0.1649636036        0.3268632800
 H          8.3234354495       -1.0889903395        4.3159198297
 H          5.8610138882       -1.2035612955        4.5241738104
 H          4.4303568443       -0.5691801559        2.6304582124
 H          9.3354045954       -0.3564243655        2.1682831863
 H          9.0214805491        1.0644818309       -2.1764825723
 H          7.7084968012        1.7678546833       -4.1653674224
 H          5.2377894989        1.8077780039       -4.0397428220
 H          4.0952243300        1.1345400060       -1.9766402807
 H          3.8193833386        1.9688699905        1.6350905763
 H          1.3654640000        2.0930746710        1.8071342561
 H          0.6830061084       -3.1639125169       -2.2244758884
 H          3.1261031301       -3.4089501066       -2.4108116426
 H          4.6715906172       -1.8994687304       -1.2877263739
 H         -4.1214874653       -1.9671437031       -1.5721814255
 H         -7.1402082481        1.1201011065       -1.3893102232
 H         -9.3211696746        0.3551598431       -2.3007693680
 H         -8.4135659346       -3.5645293455       -1.6692668068
 H         -6.1878985064       -3.0040798044       -0.7041829312
 H         -5.5056565010        3.2438548920        0.7608316552
 H         -7.5183780073        4.2627731172        1.8187065252
 H         -9.1597277981        0.6206289257        2.6097443967
 H         -7.2293094750       -0.5876862890        1.6106709865
 H         -3.6543646670        1.7946830909        1.5949880956
  69
  -115.661342365200       0.213896359436279      !
 C          7.6906664041       -1.5073753371        3.0942807892
 C          6.3121871633       -1.5515180120        3.2204195437
 C          5.5022014506       -0.9464699968        2.2765855309
 C          6.0631408270       -0.2854649248        1.1871666836
 C          7.4632069908       -0.2481326239        1.0648683791
 C          8.2655776803       -0.8557197044        2.0150199158
 O          8.0837579564        0.3803694250        0.0200000901
 C          7.2948143032        0.9577276048       -0.9369927832
 C          7.9271653684        1.5671524756       -2.0068696070
 C          7.1777081800        2.1653948006       -3.0069492728
 C          5.7947888149        2.1505557151       -2.9359567223
 C          5.1540674173        1.5453527410       -1.8700977439
 C          5.8916435052        0.9426937477       -0.8543664987
 N          5.2819795227        0.3334000141        0.2284006145
 C          3.8620359063        0.3207892184        0.3277657028
 C          3.2123264583        1.3684188663        0.9721469884
 C          1.8289603544        1.4540979787        1.0690771858
 C          1.0637821787        0.4447178619        0.4857589335
 C          1.7370036990       -0.6275472593       -0.1581336705
 C          0.8373892949       -1.5663683283       -0.7083579645
 C          1.3462124403       -2.6725315277       -1.3753072767
 C          2.7315165842       -2.7990838382       -1.4731370433
 C          3.6131854389       -1.8719265017       -0.9442678433
 C          3.1258161122       -0.7388463161       -0.2620389927
 C         -0.4782824496       -1.0722577668       -0.4199163394
 N         -1.6570617894       -1.5149625523       -0.7183384772
 C         -2.7496794864       -0.8309940256       -0.3519788226
 C         -4.0310434458       -1.2635888261       -0.6931009906
 C         -5.1616699526       -0.5490862258       -0.3408595311
 C         -6.4714481274       -1.0039454858       -0.8200222416
 C         -7.3758041896       -0.1225928535       -1.4149817006
 C         -8.5863943456       -0.6139171925       -1.8685826487
 N         -8.9450778371       -1.8843816946       -1.7738682337
 C         -8.0854386831       -2.7244273091       -1.2205237686
 C         -6.8462997487       -2.3452211772       -0.7357212538
 C         -5.0230362701        0.6382479704        0.4214377633
 C         -6.1990520525        1.3766372992        0.9040476443
 C         -6.2775170836        2.7631760451        0.7809833424
 C         -7.4000488825        3.4131890293        1.2639451437
 N         -8.4103894976        2.7919292578        1.8493598930
 C         -8.3317410129        1.4777411813        1.9800187740
 C         -7.2606688090        0.7252470592        1.5314460370
 C         -3.7676364812        1.0894444089        0.7667648514
 C         -2.6035428272        0.4006955504        0.3943972667
 N         -1.3941864331        0.8508877083        0.7067285106
 C         -0.3246467556        0.1918736712        0.3361640059
 H          8.3213750744       -1.9782829941        3.8313395076
 H          5.8603481258       -2.0590610163        4.0582560273
 H          4.4280088059       -0.9789649095        2.3716954737
 H          9.3353642145       -0.8062908733        1.8905706928
 H          9.0048960284        1.5614618267       -2.0369343694
 H          7.6762496458        2.6390800826       -3.8375187641
 H          5.2063986906        2.6123016524       -3.7132731930
 H          4.0769819963        1.5328213843       -1.8140614839
 H          3.8204759577        2.1495840599        1.4071086128
 H          1.3643296190        2.2852908180        1.5745844996
 H          0.6921262094       -3.4134352155       -1.8074470387
 H          3.1347707182       -3.6584054237       -1.9896763222
 H          4.6778542594       -2.0184757233       -1.0561412177
 H         -4.1176835621       -2.1634597063       -1.2829665489
 H         -7.1298670394        0.9211524022       -1.5335266859
 H         -9.3106233999        0.0413731555       -2.3349514649
 H         -8.4129749838       -3.7545964300       -1.1640659785
 H         -6.1881316138       -3.0697410403       -0.2804804093
 H         -5.4850581008        3.3152519088        0.2987067758
 H         -7.5003777971        4.4875847353        1.1789051127
 H         -9.1735906110        1.0068223704        2.4707500163
 H         -7.2430206741       -0.3440761720        1.6739754261
 H         -3.6522603258        1.9832518884        1.3607842728
  69
  -115.661317803600       0.208408612873234      !
 C          7.7574931857       -1.1940628227        3.3422149949
 C          6.3818326480       -1.2821559681        3.4742407205
 C          5.5492763408       -0.8087896322        2.4763898321
 C          6.0814249333       -0.2305709039        1.3264186387
 C          7.4793835118       -0.1659093848        1.1920327844
 C          8.3051567637       -0.6406346847        2.1965204522
 O          8.0795560786        0.3499830170        0.0767770514
 C          7.2725196731        0.8257916246       -0.9194100444
 C          7.8892123587        1.3515774485       -2.0419458746
 C          7.1258166941        1.8664725436       -3.0767227347
 C          5.7445928550        1.8657304415       -2.9788889307
 C          5.1203367097        1.3426869524       -1.8612433679
 C          5.8708655462        0.8004503532       -0.8203701957
 N          5.2776705476        0.2596539329        0.3103878470
 C          3.8625128866        0.2151008119        0.4120295066
 C          3.2086741140        1.0687347247        1.2970102503
 C          1.8260278177        1.1228679903        1.4150603013
 C          1.0612206302        0.2871772015        0.6015290324
 C          1.7363712448       -0.5923054961       -0.2865013341
 C          0.8370894191       -1.3686586226       -1.0496848825
 C          1.3449761322       -2.2828878615       -1.9622469851
 C          2.7302422909       -2.3879826827       -2.0812951048
 C          3.6115851047       -1.6157114047       -1.3441493253
 C          3.1251145539       -0.6735457546       -0.4147936802
 C         -0.4788446811       -0.9574757812       -0.6530156400
 N         -1.6566565499       -1.3065439977       -1.0612938449
 C         -2.7497495022       -0.7297044320       -0.5434278323
 C         -4.0299681456       -1.0657223564       -0.9828185828
 C         -5.1629469981       -0.4688481925       -0.4599102515
 C         -6.4814101348       -0.8984175071       -0.9391206505
 C         -6.7325436603       -1.0450231630       -2.3040093620
 C         -7.9889164261       -1.4553781520       -2.7124309011
 N         -8.9780659974       -1.7288162000       -1.8771222378
 C         -8.7382144472       -1.6060878099       -0.5813946443
 C         -7.5226639575       -1.2005206649       -0.0604139047
 C         -5.0247114610        0.5170085814        0.5486148701
 C         -6.1910315478        1.2416922321        1.0747308662
 C         -7.1317670817        1.8213626095        0.2240194142
 C         -8.1961489815        2.5095086002        0.7792418283
 N         -8.3773299332        2.6520463060        2.0820279211
 C         -7.4807932366        2.1117538500        2.8905526374
 C         -6.3752897895        1.4069729288        2.4465230561
 C         -3.7710861020        0.8574031796        1.0094829444
 C         -2.6063705675        0.2710120852        0.4925765387
 N         -1.3977067667        0.6257628863        0.9137205479
 C         -0.3272299074        0.0785959076        0.3929161970
 H          8.4060288348       -1.5603119196        4.1219486395
 H          5.9489575992       -1.7244318704        4.3579123838
 H          4.4782746974       -0.8869642822        2.5769324691
 H          9.3720529075       -0.5692398102        2.0585085329
 H          8.9665915192        1.3500095952       -2.0822978293
 H          7.6115540715        2.2721345424       -3.9497733939
 H          5.1434089257        2.2766408222       -3.7748378828
 H          4.0448308383        1.3529288764       -1.7868587253
 H          3.8144121210        1.7257296178        1.9061413148
 H          1.3607009662        1.8056534473        2.1076274644
 H          0.6905062784       -2.8950247628       -2.5625947302
 H          3.1343120677       -3.1012437390       -2.7853945334
 H          4.6757659598       -1.7371625502       -1.4851478749
 H         -4.1177727045       -1.8330877275       -1.7368851312
 H         -5.9647438954       -0.8187423474       -3.0283844118
 H         -8.2218875925       -1.5704887674       -3.7632798931
 H         -9.5677692865       -1.8472100281        0.0705677498
 H         -7.3799441129       -1.1323316418        1.0067768561
 H         -7.0257380364        1.7450652238       -0.8469277844
 H         -8.9458161817        2.9722985177        0.1507182255
 H         -7.6625207258        2.2530117700        3.9481866416
 H         -5.6776748586        0.9747307604        3.1478694571
 H         -3.6552902007        1.6241598575        1.7603765214
