  85
       -139.07779248
 C         -8.6915825140        0.2462915805       -1.2127682547
 C         -7.8202908989        0.0135888014        0.0167527438
 C         -8.6691460317       -0.2169779814        1.2626390225
 C         -6.8693985820       -1.1888846529       -0.2131126460
 O         -7.2823836919       -2.3221900813       -0.4240438123
 C         -5.5349916936       -0.6929105005       -0.1296306627
 C         -4.3306420232       -1.3817301413       -0.2536266323
 C         -3.1336014257       -0.7076475835       -0.1142006479
 C         -1.8769283444       -1.4548285559       -0.1165063865
 C         -0.8888597588       -1.1910974199        0.8396532206
 C          0.3264188830       -1.8358810158        0.7976104844
 C          0.5858150714       -2.7684058180       -0.2027524765
 N          1.8732478930       -3.3599166785       -0.2822915089
 C          2.9597221513       -2.5813882084       -0.6563325074
 C          2.8094578163       -1.2730159314       -1.1063350385
 C          3.9148991630       -0.5203035712       -1.4616952026
 C          5.1857845379       -1.0586026427       -1.3776455474
 C          5.3513285377       -2.3691171619       -0.9582048298
 C          4.2508142613       -3.1321289862       -0.6096405101
 O          4.4751457381       -4.4278989411       -0.2309793470
 C          3.3852272118       -5.2008268392        0.0733213416
 C          3.6183657167       -6.5224582072        0.4098387031
 C          2.5609466566       -7.3498071455        0.7536107423
 C          1.2723315943       -6.8467328915        0.7707725573
 C          1.0303018002       -5.5262540773        0.4339605842
 C          2.0778852366       -4.6873936992        0.0665494047
 C         -0.4059419149       -3.0874690516       -1.1235854987
 C         -1.6244463749       -2.4416066354       -1.0731455493
 C         -3.1295498085        0.7148900442        0.1010888142
 C         -1.8699410530        1.4567684222        0.0994913934
 C         -1.6148904173        2.4460211479        1.0531951409
 C         -0.3948664788        3.0885760437        1.1018642187
 C          0.5965209553        2.7625552959        0.1830568699
 N          1.8858345798        3.3504978320        0.2645428950
 C          2.0966242329        4.6724374988       -0.0998616314
 C          1.0560008542        5.5036692244       -0.5023364209
 C          1.3039980574        6.8185913360       -0.8562766966
 C          2.5916017114        7.3232369829       -0.8207562443
 C          3.6423204106        6.5033733283       -0.4401250053
 C          3.4033626481        5.1873593227       -0.0863972083
 O          4.4865186886        4.4209777703        0.2560911445
 C          4.2552472050        3.1299234041        0.6469793106
 C          5.3484875364        2.3736079391        1.0310331206
 C          5.1753497487        1.0675265039        1.4612347692
 C          3.9039349178        0.5270167525        1.5196555771
 C          2.8056166111        1.2735818981        1.1307333820
 C          2.9641099198        2.5776180944        0.6712003122
 C          0.3353901408        1.8276989532       -0.8142639832
 C         -0.8822944229        1.1868752513       -0.8552735121
 C         -4.3226428350        1.3945264162        0.2478625262
 C         -5.5307730612        0.7110328836        0.1341259617
 C         -6.8621589738        1.2127604547        0.2314744011
 O         -7.2677132976        2.3480883518        0.4456263328
 H         -9.3204076257       -0.6239614299       -1.3893486185
 H         -9.3248524679        1.1174554704       -1.0579413279
 H         -8.0717932009        0.4154051119       -2.0919756574
 H         -9.2976006298        0.6518305587        1.4471950209
 H         -9.3021275192       -1.0907775060        1.1223637323
 H         -8.0333442065       -0.3806994230        2.1313883649
 H         -4.3469055602       -2.4511186634       -0.4056587334
 H         -1.0886145601       -0.4794129253        1.6263484428
 H          1.0887708921       -1.6235401052        1.5333751554
 H          1.8192349804       -0.8515312445       -1.1739134407
 H          3.7793243599        0.4934366581       -1.8049756799
 H          6.0475615954       -0.4685644106       -1.6449385641
 H          6.3279166780       -2.8219471934       -0.8988496124
 H          4.6348911158       -6.8814818451        0.4013368839
 H          2.7499436585       -8.3791050495        1.0133960764
 H          0.4452808996       -7.4805355273        1.0499580523
 H          0.0255529451       -5.1354085077        0.4600871389
 H         -0.2056044739       -3.8226721903       -1.8893815214
 H         -2.3802703716       -2.6698571154       -1.8096377130
 H         -2.3704606187        2.6787085118        1.7885161492
 H         -0.1927009517        3.8269458034        1.8640925094
 H          0.0522130338        5.1112742638       -0.5415412118
 H          0.4823763035        7.4468451944       -1.1627896040
 H          2.7850559270        8.3482548565       -1.0938585180
 H          4.6579051640        6.8642799468       -0.4153172571
 H          6.3250912686        2.8284714798        0.9906736177
 H          6.0314747897        0.4826896490        1.7566386227
 H          3.7624135889       -0.4839499447        1.8686742973
 H          1.8151181279        0.8500806220        1.1784470858
 H          1.0975638162        1.6104605133       -1.5487544071
 H         -1.0838955935        0.4740135823       -1.6404147836
 H         -4.3331476985        2.4640245949        0.3995495182
  85
       -139.07775060
 C         -8.6438517484        0.2607154753       -1.2793206199
 C         -7.7988171150        0.0251063943       -0.0318146032
 C         -8.6743850191       -0.1996145049        1.1963432038
 C         -6.8494403149       -1.1814018553       -0.2440293409
 O         -7.2629196101       -2.3138272754       -0.4580112552
 C         -5.5142300064       -0.6896826267       -0.1445331041
 C         -4.3109918118       -1.3813518286       -0.2587454892
 C         -3.1126141127       -0.7107837328       -0.1103956111
 C         -1.8587724414       -1.4618766489       -0.1133396089
 C         -0.8642834243       -1.1996392072        0.8365732646
 C          0.3456214037       -1.8550185450        0.7940670375
 C          0.5911360459       -2.7989614702       -0.1985787487
 N          1.8680392015       -3.4143898732       -0.2739331645
 C          2.9644967065       -2.6697409732       -0.6839072183
 C          2.8363763006       -1.3672362226       -1.1572116019
 C          3.9520704765       -0.6495442517       -1.5514455292
 C          5.2107277198       -1.2185330185       -1.4850973169
 C          5.3536727264       -2.5231176898       -1.0394717214
 C          4.2429830915       -3.2503588879       -0.6491755333
 O          4.4448717239       -4.5411892590       -0.2416799557
 C          3.3452890630       -5.2762073941        0.1168709306
 C          3.5554265814       -6.5889029390        0.5001437970
 C          2.4867485825       -7.3777183084        0.8960844949
 C          1.2099569106       -6.8454885857        0.9164097062
 C          0.9909326311       -5.5335191464        0.5337309920
 C          2.0500649150       -4.7330872691        0.1172695605
 C         -0.4057477852       -3.1138679716       -1.1152687279
 C         -1.6169903626       -2.4550875007       -1.0665544519
 C         -3.1071162204        0.7107286204        0.1102124430
 C         -1.8473204918        1.4522011333        0.1195129397
 C         -1.5974120490        2.4348269844        1.0812891351
 C         -0.3827108970        3.0868132261        1.1322381453
 C          0.6088828656        2.7789223434        0.2068437396
 N          1.8847530789        3.3940982658        0.2780444429
 C          2.0487818148        4.7381819398       -0.0290436165
 C          0.9763900772        5.5570618759       -0.3693366377
 C          1.1781463213        6.8939957315       -0.6652603193
 C          2.4511116182        7.4346051888       -0.6344088451
 C          3.5332438280        6.6281192494       -0.3194910286
 C          3.3402273777        5.2902527276       -0.0239994601
 O          4.4535519906        4.5413332802        0.2529265462
 C          4.2702303502        3.2261522856        0.5831779726
 C          5.3959897355        2.4855576514        0.8982743630
 C          5.2737746422        1.1560691081        1.2697231020
 C          4.0205302385        0.5758161324        1.3399768048
 C          2.8902108568        1.3065327387        1.0182159922
 C          2.9966533199        2.6346813982        0.6157701731
 C          0.3551323564        1.8439201017       -0.7927278567
 C         -0.8567852691        1.1924223574       -0.8350154362
 C         -4.2996134249        1.3933213153        0.2481861879
 C         -5.5088041180        0.7141654000        0.1196655148
 C         -6.8395331855        1.2204626984        0.1992889340
 O         -7.2440982837        2.3570816349        0.4086207841
 H         -9.2759806281       -0.6050869619       -1.4657744455
 H         -9.2730556103        1.1373647486       -1.1398640868
 H         -8.0054263733        0.4219627282       -2.1465902907
 H         -9.3104986745       -1.0689314389        1.0432358585
 H         -8.0577310901       -0.3675152038        2.0779030287
 H         -9.3004737086        0.6735595801        1.3679907955
 H         -4.3292669295       -2.4503098126       -0.4135399353
 H         -1.0543428347       -0.4819844086        1.6201364953
 H          1.1126630498       -1.6435187150        1.5253185685
 H          1.8555835482       -0.9222854621       -1.2122460150
 H          3.8338215253        0.3603463379       -1.9118109113
 H          6.0806029975       -0.6565633085       -1.7848215822
 H          6.3198694839       -2.9990306100       -0.9909929483
 H          4.5631765204       -6.9717269412        0.4863650354
 H          2.6580288367       -8.3999905898        1.1931553299
 H          0.3744041223       -7.4492330260        1.2342080319
 H         -0.0044301508       -5.1193219426        0.5609021567
 H         -0.2151789928       -3.8582014696       -1.8746480404
 H         -2.3767456557       -2.6803959344       -1.7998383585
 H         -2.3534647864        2.6562287836        1.8196298086
 H         -0.1852130827        3.8202093336        1.9005166460
 H         -0.0167886856        5.1387911892       -0.4076281474
 H          0.3315679192        7.5109175203       -0.9228023437
 H          2.6088715927        8.4765320765       -0.8625960707
 H          4.5388554238        7.0163493526       -0.3023741991
 H          6.3572479241        2.9714293749        0.8517765164
 H          6.1548205223        0.5841922934        1.5127173830
 H          3.9178926429       -0.4533848998        1.6467629012
 H          1.9145147809        0.8510078849        1.0765470219
 H          1.1178790096        1.6363857039       -1.5295077878
 H         -1.0527449311        0.4808400312       -1.6227546977
 H         -4.3081560053        2.4624025535        0.4029485190
  85
       -139.07770588
 C         -8.6696985433        0.2891746179       -1.3001954507
 C         -7.8306450465        0.0461431908       -0.0499718971
 C         -8.7118140334       -0.1737167670        1.1748289155
 C         -6.8882066632       -1.1662035835       -0.2610931471
 O         -7.3088729543       -2.2958386203       -0.4759780969
 C         -5.5500965439       -0.6830607110       -0.1592465542
 C         -4.3509553204       -1.3831772982       -0.2688724510
 C         -3.1493952177       -0.7199059785       -0.1164716557
 C         -1.8961466469       -1.4727914745       -0.1110986428
 C         -0.9105668249       -1.2072816621        0.8470951091
 C          0.3080798090       -1.8459102745        0.8044066535
 C          0.5709861769       -2.7753242385       -0.1971651053
 N          1.8670313578       -3.3507805229       -0.2856239029
 C          2.9226215458       -2.5787573370       -0.7478207866
 C          2.7282838643       -1.3047236946       -1.2728322600
 C          3.8045869537       -0.5557648739       -1.7150461394
 C          5.0884408057       -1.0645092592       -1.6449673273
 C          5.2969292829       -2.3411071147       -1.1469617912
 C          4.2262418735       -3.0998706312       -0.7082753490
 O          4.4914235894       -4.3606130552       -0.2459022985
 C          3.4311302697       -5.1244262711        0.1679180980
 C          3.7040317213       -6.4064501866        0.6103108818
 C          2.6764647111       -7.2197882085        1.0621291748
 C          1.3776974110       -6.7436040667        1.0770073248
 C          1.0956227983       -5.4626197058        0.6350538500
 C          2.1133439633       -4.6384987751        0.1654854027
 C         -0.4204155693       -3.1035529046       -1.1143521757
 C         -1.6414764205       -2.4619332988       -1.0647603011
 C         -3.1359165052        0.7022779110        0.1003367548
 C         -1.8696036801        1.4338090195        0.1091300027
 C         -1.6039112700        2.4046000549        1.0781688181
 C         -0.3786430477        3.0368379968        1.1332620583
 C          0.6060836926        2.7221155881        0.2030846815
 N          1.8961969929        3.3061965094        0.2831917367
 C          2.0949175744        4.6491548624       -0.0062776137
 C          1.0444798178        5.4987551230       -0.3395207833
 C          1.2803793754        6.8344081330       -0.6154094138
 C          2.5659105828        7.3431317069       -0.5705423830
 C          3.6266293992        6.5057493776       -0.2633679101
 C          3.3996757619        5.1687189714        0.0109224498
 O          4.4932816430        4.3878973677        0.2787301976
 C          4.2758029327        3.0741648966        0.5934462189
 C          5.3813621655        2.3012339498        0.9020684880
 C          5.2240848992        0.9715680331        1.2595641098
 C          3.9559850244        0.4240051758        1.3227142378
 C          2.8456771715        1.1868429450        1.0062543028
 C          2.9874037576        2.5155295066        0.6171401292
 C          0.3338954572        1.8049920562       -0.8080573962
 C         -0.8872112960        1.1711492447       -0.8526808020
 C         -4.3234525559        1.3929732611        0.2353209436
 C         -5.5367494946        0.7206401766        0.1056707415
 C         -6.8639154056        1.2350463007        0.1848001512
 O         -7.2623085363        2.3736786009        0.3957392592
 H         -8.0273121200        0.4530895278       -2.1640399755
 H         -9.3026603701       -0.5744611622       -1.4934564650
 H         -9.2979883853        1.1662844737       -1.1597783748
 H         -9.3334917751        0.7029804349        1.3445233529
 H         -9.3522565995       -1.0392998993        1.0189133446
 H         -8.0991668571       -0.3453961843        2.0584453184
 H         -4.3754814180       -2.4522144939       -0.4223364808
 H         -1.1131290905       -0.4969953993        1.6342515304
 H          1.0698228328       -1.6299927692        1.5398160226
 H          1.7271978100       -0.9077709382       -1.3285911722
 H          3.6362626307        0.4318380055       -2.1153353845
 H          5.9276808745       -0.4776766451       -1.9820222251
 H          6.2846747965       -2.7698678675       -1.0934196793
 H          4.7270436171       -6.7463492155        0.5977218191
 H          2.8969105704       -8.2177507030        1.4057991756
 H          0.5743438092       -7.3675091749        1.4362275600
 H          0.0836556622       -5.0899238255        0.6553440196
 H         -0.2177156378       -3.8415704118       -1.8767144639
 H         -2.3969470759       -2.6947625521       -1.8001377114
 H         -2.3552179052        2.6302655698        1.8201197779
 H         -0.1678367561        3.7581744398        1.9093432600
 H          0.0416866248        5.1052578121       -0.3874286376
 H          0.4505884313        7.4756506230       -0.8681842193
 H          2.7500148317        8.3845672656       -0.7806878132
 H          4.6412888992        6.8690359345       -0.2357296236
 H          6.3551819127        2.7621188451        0.8619584166
 H          6.0897019882        0.3740537731        1.4961097089
 H          3.8262197785       -0.6053365112        1.6184111392
 H          1.8582625950        0.7567707016        1.0576987367
 H          1.0909322654        1.5958691442       -1.5500263183
 H         -1.0967903754        0.4706051990       -1.6468691996
 H         -4.3249047013        2.4622852832        0.3888247586
  85
       -139.07754379
 C         -8.7462736155        0.2069516960       -1.1062192339
 C         -7.8415657280       -0.0357026809        0.0966835591
 C         -8.6553363128       -0.3065037053        1.3578687416
 C         -6.8763527265       -1.2176941433       -0.1781001131
 O         -7.2770914139       -2.3518030763       -0.4086557449
 C         -5.5492343628       -0.7036567804       -0.1033149057
 C         -4.3366437650       -1.3738577614       -0.2539579123
 C         -3.1492623593       -0.6846342739       -0.1151351795
 C         -1.8803983670       -1.4123956275       -0.1347373043
 C         -0.9061080765       -1.1655603947        0.8390913024
 C          0.3168725559       -1.7952937154        0.7921474486
 C          0.6002065505       -2.6910355283       -0.2350908818
 N          1.8912775522       -3.2726519242       -0.3118522295
 C          2.9906118038       -2.4692614700       -0.5849610336
 C          2.8580451675       -1.1283284588       -0.9336283662
 C          3.9754704214       -0.3550137154       -1.1943396148
 C          5.2423514394       -0.9026611244       -1.1123867356
 C          5.3916863790       -2.2429161900       -0.7935395284
 C          4.2790537828       -3.0265934011       -0.5428884979
 O          4.4906510747       -4.3497030496       -0.2657932435
 C          3.3919610603       -5.1401491821       -0.0542777697
 C          3.6155706419       -6.4843919140        0.1860620227
 C          2.5493713377       -7.3340874931        0.4343892685
 C          1.2611362502       -6.8304070991        0.4550421765
 C          1.0289045351       -5.4872036307        0.2148502494
 C          2.0855271761       -4.6242636065       -0.0596544147
 C         -0.3754923715       -2.9876244852       -1.1806969494
 C         -1.6038659208       -2.3611701802       -1.1219106808
 C         -3.1618065135        0.7339126267        0.1229023875
 C         -1.9055044499        1.4826672032        0.1174932956
 C         -1.6317968430        2.4467526957        1.0908267383
 C         -0.4042478725        3.0764116529        1.1400105872
 C          0.5716497854        2.7612504777        0.2025533859
 N          1.8759382714        3.3214139759        0.2917136338
 C          2.1544979756        4.5724440064       -0.2352172940
 C          1.1585876208        5.3834661890       -0.7692862484
 C          1.4714605909        6.6282748026       -1.2875254064
 C          2.7792518269        7.0796058261       -1.2838885688
 C          3.7846722343        6.2793778621       -0.7632339778
 C          3.4810107751        5.0339901580       -0.2434091539
 O          4.5181529501        4.2806262096        0.2424297798
 C          4.2216196922        3.0522378108        0.7696626625
 C          5.2696305381        2.2991216871        1.2681141392
 C          5.0286656742        1.0524630481        1.8244594829
 C          3.7355903907        0.5672019165        1.8902301033
 C          2.6812640454        1.3111701951        1.3902826014
 C          2.9082822138        2.5561784821        0.8118143691
 C          0.2889575263        1.8600787037       -0.8185376083
 C         -0.9355845479        1.2322330527       -0.8599508103
 C         -4.3611397844        1.3946880562        0.2969304287
 C         -5.5610111393        0.6949373980        0.1882411298
 C         -6.8979419964        1.1744062696        0.3160186507
 O         -7.3177873879        2.2991518243        0.5577126550
 H         -9.3676320941       -0.6685057391       -1.2834691854
 H         -9.3872756057        1.0661193949       -0.9193795412
 H         -8.1512572822        0.4008156941       -1.9973318238
 H         -9.2889515962        0.5498896069        1.5795582646
 H         -9.2818547261       -1.1840290096        1.2119708550
 H         -7.9959833640       -0.4838602174        2.2062037900
 H         -4.3387930238       -2.4405159175       -0.4247500042
 H         -1.1234396498       -0.4800468736        1.6442720399
 H          1.0672269838       -1.5990072736        1.5442870670
 H          1.8720543434       -0.6969917386       -0.9997973344
 H          3.8520911148        0.6830672048       -1.4605778630
 H          6.1130772168       -0.2968195523       -1.3047262415
 H          6.3647030785       -2.7040170817       -0.7396044234
 H          4.6321522858       -6.8433172426        0.1789251338
 H          2.7310056538       -8.3808939790        0.6184248087
 H          0.4261988362       -7.4812703033        0.6622736045
 H          0.0233745496       -5.0989464887        0.2455427400
 H         -0.1560162660       -3.6911286891       -1.9706539883
 H         -2.3497172474       -2.5753716000       -1.8727766608
 H         -2.3770205492        2.6685106758        1.8399915622
 H         -0.1846183754        3.7949080845        1.9161278568
 H          0.1400761901        5.0282143480       -0.7782013715
 H          0.6853452277        7.2434410776       -1.6965447083
 H          3.0239031056        8.0491788149       -1.6873489089
 H          4.8131377125        6.6026352705       -0.7542536758
 H          6.2658996320        2.7074088986        1.2132321450
 H          5.8508168648        0.4700516084        2.2081048384
 H          3.5426900852       -0.3979966521        2.3321481929
 H          1.6725162158        0.9331761574        1.4407090754
 H          1.0394259602        1.6559985716       -1.5688095981
 H         -1.1536680380        0.5400729834       -1.6589928531
 H         -4.3841234254        2.4608831304        0.4692438372
  85
       -139.07730405
 C         -8.6471771744       -0.1684831089       -0.7163820846
 C         -7.7073154221       -0.0975320682        0.4825697983
 C         -8.4844637715       -0.0473540309        1.7938851554
 C         -6.7372127162       -1.3058772724        0.4760770686
 O         -7.1269978428       -2.4636656143        0.5564824666
 C         -5.4141895689       -0.7829696728        0.3704877101
 C         -4.2004341613       -1.4628545555        0.3202455501
 C         -3.0174050081       -0.7593522300        0.1962810433
 C         -1.7675379536       -1.4933607578        0.0144399136
 C         -1.4816566937       -2.6226432467        0.7877442293
 C         -0.2904375627       -3.3015500364        0.6419612060
 C          0.6440168230       -2.8708435757       -0.2943603267
 N          1.8870978842       -3.5390248125       -0.4310025462
 C          3.0623060280       -2.8995111989       -0.0613031854
 C          3.0646936166       -1.6416204800        0.5350180473
 C          4.2559523619       -1.0320282775        0.8891218528
 C          5.4632683495       -1.6652390059        0.6557124739
 C          5.4785285854       -2.9285835590        0.0860722932
 C          4.2915103313       -3.5492300131       -0.2617997371
 O          4.3720807663       -4.8085302033       -0.7906816022
 C          3.2000294199       -5.4441362691       -1.1052973744
 C          3.2911095314       -6.7301130403       -1.6080547675
 C          2.1444585904       -7.4186355601       -1.9706017646
 C          0.9089966436       -6.8099993576       -1.8411616547
 C          0.8092280240       -5.5247863396       -1.3373937697
 C          1.9482710621       -4.8274756960       -0.9458117555
 C          0.3594346246       -1.7709179626       -1.0987630540
 C         -0.8305931600       -1.0951925523       -0.9466860454
 C         -3.0364983958        0.6785383017        0.1724540299
 C         -1.7921907742        1.4435992859        0.1984066078
 C         -1.6327966716        2.5784484973       -0.6026313645
 C         -0.4508444316        3.2884106385       -0.6031044546
 C          0.6023182128        2.8839573426        0.2109364566
 N          1.8340004087        3.5861153196        0.1967405892
 C          2.9730140820        2.9786042730       -0.3133120569
 C          2.9376585168        1.7208142344       -0.9087018479
 C          4.0936840555        1.1435436261       -1.4049459010
 C          5.3027146600        1.8094384283       -1.3167671039
 C          5.3522745190        3.0732378908       -0.7501113070
 C          4.1993374865        3.6617286026       -0.2605738557
 O          4.3087965061        4.9232533770        0.2576772111
 C          3.1663797618        5.5267106711        0.7129867272
 C          3.2824922461        6.8149223254        1.2046382515
 C          2.1696569970        7.4719568737        1.7049724096
 C          0.9446954430        6.8295802133        1.7240664631
 C          0.8199336521        5.5418808253        1.2324952849
 C          1.9218379968        4.8759660576        0.7040858862
 C          0.4477500663        1.7779367302        1.0419682089
 C         -0.7339268916        1.0711594558        1.0360538229
 C         -4.2424906539        1.3527643046        0.1991448948
 C         -5.4358600674        0.6435229697        0.3015814995
 C         -6.7738308634        1.1339603239        0.3657434712
 O         -7.1986624408        2.2819739772        0.3367304415
 H         -9.2680603674       -1.0593761929       -0.6476062398
 H         -9.2874227715        0.7111098177       -0.7357339141
 H         -8.0783905537       -0.2085150953       -1.6440775347
 H         -9.1299813246        0.8285087484        1.8081134069
 H         -9.0957431215       -0.9418754046        1.8949036007
 H         -7.8006877186        0.0074166126        2.6396245719
 H         -4.2013178028       -2.5431123341        0.3256152470
 H         -2.1912611576       -2.9457909779        1.5344732727
 H         -0.0668208896       -4.1574320051        1.2621149842
 H          2.1259470094       -1.1449649724        0.7223624164
 H          4.2360357078       -0.0564358630        1.3485949453
 H          6.3916456178       -1.1868422343        0.9233094014
 H          6.4021034065       -3.4555810182       -0.0917691062
 H          4.2693111563       -7.1713415334       -1.7115634972
 H          2.2226483880       -8.4214026625       -2.3593224051
 H          0.0120283103       -7.3326164072       -2.1346331225
 H         -0.1561459936       -5.0522873236       -1.2508777728
 H          1.0774848382       -1.4587863511       -1.8437243544
 H         -1.0539042622       -0.2587160675       -1.5914202256
 H         -2.4371187201        2.8820521544       -1.2556841322
 H         -0.3276523510        4.1491267484       -1.2443372268
 H          1.9969557244        1.1987315785       -0.9831268430
 H          4.0449863834        0.1673746208       -1.8610977865
 H          6.2047663365        1.3561591295       -1.6951124842
 H          6.2760006451        3.6251627587       -0.6832163833
 H          4.2536563004        7.2827735660        1.1905279186
 H          2.2668312693        8.4765740910        2.0842374248
 H          0.0758592670        7.3274491284        2.1251965592
 H         -0.1355697635        5.0430365479        1.2620477917
 H          1.2598647878        1.4856143360        1.6922789570
 H         -0.8540326605        0.2294513716        1.7010817680
 H         -4.2703075354        2.4326864031        0.1956350892
