  69
       -112.02755911
 N        -10.6725766646       -2.6375375034        0.5798366115
 C         -9.6243038558       -2.1783080180        0.4699892460
 C         -8.3414503833       -1.6182698168        0.3335482064
 C         -7.7739643576       -1.4539765193       -0.9364882748
 C         -6.5165005157       -0.9149619162       -1.0644628660
 C         -5.7845383850       -0.4995700907        0.0608893203
 C         -4.4639986056        0.0821740638       -0.0794780690
 C         -4.1623674288        1.3303273694        0.5529839165
 C         -5.1381946758        2.0756784681        1.2201408877
 C         -4.8182019725        3.2406965763        1.9130159594
 C         -3.5104043356        3.6761456410        1.9530699104
 C         -2.5328375500        2.9956861718        1.2333927996
 C         -2.8409690016        1.8628684115        0.4723703148
 C         -1.8691097389        1.2322610802       -0.3609310653
 C         -0.5562408159        1.8474444215       -0.5322682394
 C         -0.4459658139        3.1796701297       -0.9533608059
 C          0.7925006961        3.7669422694       -1.1277666188
 C          1.9502765935        3.0502546471       -0.8856819741
 C          1.8600735257        1.7220659513       -0.4654160810
 C          3.0518608506        0.9439996898       -0.2150884538
 N          3.0865525540       -0.3145526542        0.1166183473
 C          4.4127945310       -0.6173881267        0.2287308414
 C          5.0540273409       -1.8437613752        0.5609280416
 C          4.3193170807       -2.9990680343        0.8437111821
 C          4.9634715886       -4.1696400756        1.1596400306
 C          6.3559568986       -4.1962177722        1.1967436905
 C          7.0890221922       -3.0657005502        0.9201827748
 C          6.4702234594       -1.8497001719        0.5919233523
 C          7.2265236689       -0.6448139506        0.2939101594
 C          8.6283546486       -0.6059647929        0.3096377890
 C          9.3236886905        0.5461001188        0.0231353337
 C          8.6519336454        1.7248704863       -0.2946954254
 C          7.2801296200        1.7325553639       -0.3222783093
 C          6.5618319540        0.5655492921       -0.0334147610
 C          5.1476494648        0.5232203850       -0.0525534761
 O          4.2773231555        1.5190898654       -0.3357492607
 C          0.6134006629        1.1288355565       -0.2914061074
 C         -2.1842700373        0.0167822020       -1.0392984003
 C         -1.2798007007       -0.5972542588       -1.9125020889
 C         -1.5504634495       -1.8351275708       -2.4876034986
 C         -2.7296631143       -2.4859602990       -2.1919084620
 C         -3.6754372425       -1.8668272154       -1.3785806799
 C         -3.4595767247       -0.5938254468       -0.8438483651
 C         -6.3718796257       -0.6629508805        1.3270830049
 C         -7.6202050353       -1.2200725308        1.4663508251
 H         -8.3363628718       -1.7495030823       -1.8105125215
 H         -6.0959604303       -0.7629680894       -2.0477650305
 H         -6.1670212641        1.7518198813        1.1934167279
 H         -5.5957692721        3.7854038771        2.4263525651
 H         -3.2403761835        4.5519861074        2.5232953955
 H         -1.5137083394        3.3483571075        1.2689708443
 H         -1.3447069857        3.7376373595       -1.1722902030
 H          0.8556684367        4.7920125987       -1.4618011598
 H          2.9197161290        3.5037864810       -1.0210536381
 H          3.2427907300       -2.9369012714        0.8049438341
 H          4.3998090713       -5.0640721581        1.3792242176
 H          6.8667806385       -5.1148313243        1.4463569033
 H          8.1644265757       -3.1323270620        0.9607933364
 H          9.1901961318       -1.4940599784        0.5502085810
 H         10.4034694435        0.5365652875        0.0441270973
 H          9.2092633783        2.6221905176       -0.5177531702
 H          6.7305347094        2.6297284042       -0.5655595932
 H          0.5712218811        0.1113542683        0.0644015049
 H         -0.3504402829       -0.1031441403       -2.1481113268
 H         -0.8248584939       -2.2859141646       -3.1473787916
 H         -2.9337297132       -3.4661690288       -2.5949531146
 H         -4.5905378035       -2.3914716800       -1.1517728803
 H         -5.8078655858       -0.3847223082        2.2052704162
 H         -8.0523159597       -1.3606164861        2.4464009707
