  72
       -111.47312577
 N          1.9795338188        4.9476987419       -0.7116797979
 C          1.0935405065        4.2943760942       -0.3562535364
 C         -0.0009446791        3.5397020944        0.0450688326
 C         -1.1017612027        4.2844519556        0.4484636002
 N         -1.9947525196        4.9274554613        0.8050913584
 C          0.0011566309        2.0991353527        0.0423774038
 C          1.2468645290        1.3975883503        0.0926036739
 C          2.3923539618        1.9455929432        0.7088219886
 C          3.5930195200        1.2850788262        0.7046808021
 C          3.7213192495        0.0356791028        0.0827959262
 N          4.9472520307       -0.6252806163        0.0585899479
 C          4.9889222578       -2.0179195750        0.1481173648
 C          4.0878182641       -2.6981688844        0.9704998316
 C          4.1276023163       -4.0755434128        1.0540228056
 C          5.0618541773       -4.7957921783        0.3261321152
 C          5.9589175912       -4.1259604814       -0.4914091593
 C          5.9262202866       -2.7489782853       -0.5852225679
 C          6.1308341744        0.1057035193       -0.0674205811
 C          7.2880571353       -0.3031003704        0.5991693305
 C          8.4546239649        0.4241249158        0.4721443013
 C          8.4875910854        1.5668585208       -0.3119726805
 C          7.3407620981        1.9788056580       -0.9728352171
 C          6.1697557483        1.2570767624       -0.8572015815
 C          2.5903389338       -0.5291836437       -0.5244233308
 C          1.3898284301        0.1299386684       -0.5151861953
 C         -1.2472771198        1.3997538218       -0.0165055104
 C         -2.3786387388        1.9433507273       -0.6604192117
 C         -3.5781786358        1.2807992770       -0.6804888520
 C         -3.7195399888        0.0358408123       -0.0527196912
 N         -4.9431144841       -0.6295178429       -0.0610883770
 C         -4.9806425705       -2.0230073288       -0.1358151896
 C         -4.0464119634       -2.7143034525       -0.9105889125
 C         -4.0847826602       -4.0926191555       -0.9787463689
 C         -5.0508459186       -4.8031091200       -0.2834632694
 C         -5.9814424742       -4.1223313527        0.4861081704
 C         -5.9501240721       -2.7443892994        0.5648258978
 C         -6.1328898744        0.1004479338        0.0044812388
 C         -7.2558112600       -0.3130394068       -0.7153922670
 C         -8.4271371059        0.4149073688       -0.6507909800
 C         -8.4984942908        1.5622113785        0.1238350674
 C         -7.3858194354        1.9780081718        0.8385847087
 C         -6.2104634618        1.2560023675        0.7848638947
 C         -2.6043001209       -0.5199908799        0.5904446336
 C         -1.4037580838        0.1399543714        0.6022986923
 H          2.3171100250        2.8899102975        1.2236658865
 H          4.4481655113        1.7179688407        1.2019871813
 H          3.3715897155       -2.1341022725        1.5497904766
 H          3.4303518508       -4.5893025409        1.6986558168
 H          5.0907198757       -5.8721256503        0.3956300159
 H          6.6840286004       -4.6805960592       -1.0675547536
 H          6.6135783241       -2.2282723566       -1.2358121119
 H          7.2579843148       -1.1833424777        1.2248777253
 H          9.3414602185        0.1015904814        0.9964754302
 H          9.4007695281        2.1336291054       -0.4063290190
 H          7.3581752298        2.8651298636       -1.5886968150
 H          5.2803313283        1.5715817075       -1.3822688325
 H          2.6833852933       -1.4779049298       -1.0331598698
 H          0.5442199692       -0.2987911625       -1.0315312695
 H         -2.2920402284        2.8840106765       -1.1803290756
 H         -4.4210708619        1.7083749582       -1.2025522421
 H         -3.3050596204       -2.1586408580       -1.4659442400
 H         -3.3609364240       -4.6148855388       -1.5861952116
 H         -5.0785121207       -5.8801701277       -0.3414065787
 H         -6.7328239948       -4.6688751128        1.0357944295
 H         -6.6654358121       -2.2148949251        1.1771300538
 H         -7.1949385263       -1.1970074031       -1.3335138197
 H         -9.2867255567        0.0894361496       -1.2170841460
 H         -9.4149589452        2.1297520245        0.1689532235
 H         -7.4336763946        2.8676282130        1.4479588541
 H         -5.3476688753        1.5736002589        1.3510091638
 H         -2.7088159191       -1.4631765178        1.1071447815
 H         -0.5696088147       -0.2830088972        1.1417030013
