  85
  -138.143330761900       0.837345484811996      !
 F         -2.4339239851       -5.9135303567        1.2169184405
 C         -1.5302008762       -4.9236288467        1.1017638430
 F         -1.2612875526       -4.5117780531        2.3490950424
 F         -0.4031051451       -5.5059477941        0.6462548021
 C         -1.9976948075       -3.8189279046        0.1983309176
 C         -2.6373523685       -4.1468941882       -0.9915204355
 C         -3.0440311886       -3.1335325014       -1.8416174512
 C         -2.8087675069       -1.8100101275       -1.5171388889
 C         -2.1685287148       -1.4880639278       -0.3232561768
 N         -1.9303759062       -0.1539118536        0.0166480262
 C         -0.7452017724        0.3994938861        0.4464602864
 C          0.5108509156       -0.3234215985        0.5516036643
 C          0.8708127774       -1.3248277260       -0.3518911966
 C          2.0762029275       -1.9737548297       -0.2270824385
 C          2.9646528470       -1.6459988820        0.7999505200
 O          4.1100112908       -2.3797795885        0.8291855580
 C          5.1939677448       -1.9743932794        1.6398764535
 C          5.8273177325       -0.6663499910        1.1567489678
 C          6.2214603869       -0.7480620675       -0.3197430514
 C          6.1841867188        0.6275820827       -0.9990469092
 N          4.8501868869        1.1631705836       -1.0242235375
 C          4.3104471079        2.0510242108       -0.1204100251
 C          4.9180249017        2.7574451714        0.9102338800
 C          4.1259940870        3.5814694453        1.6869177904
 C          2.7563253593        3.7006719515        1.4606406322
 C          2.1457202748        3.0118364783        0.4324443230
 C          2.9256327886        2.1937643400       -0.3727823028
 C          2.6290372908        1.3508461138       -1.4933518398
 C          1.4692412623        1.0901085466       -2.2088742017
 C          1.5273070914        0.1913552702       -3.2549701462
 C          2.7224139524       -0.4416790474       -3.5890218583
 C          3.8917853771       -0.1893821579       -2.8979025793
 C          3.8428214316        0.7168725795       -1.8476359928
 C          2.6144300541       -0.6400953074        1.6957435927
 C          1.4049077809        0.0139922234        1.5626258100
 N         -0.8948762968        1.6720971970        0.7040668898
 C         -2.1965295106        1.9890843022        0.4497339822
 C         -2.7053472301        3.3323280026        0.6907646784
 C         -1.8469664767        4.4237938670        0.5739686889
 C         -2.3074246598        5.7059413821        0.8031364111
 C         -3.6296342941        5.9179126277        1.1571217208
 C         -4.4856455286        4.8368695711        1.2920425796
 C         -4.0299210606        3.5522059498        1.0650188747
 C         -2.8648730929        0.8638063153        0.0033410782
 C         -4.2491903338        0.6703284804       -0.4042861172
 C         -5.0054169704       -0.3889433298        0.0952073679
 C         -6.3181935983       -0.5573932539       -0.3040767136
 C         -6.8932688303        0.3252463181       -1.2028949876
 C         -6.1500140834        1.3846356737       -1.6989501791
 C         -4.8371941369        1.5573615558       -1.3058173649
 C         -1.7648168390       -2.4990584148        0.5445632097
 H         -2.8139738338       -5.1815729614       -1.2400602679
 H         -3.5417948600       -3.3775366713       -2.7668815129
 H         -3.1141224107       -1.0205990797       -2.1864161141
 H          0.2242396394       -1.5774983872       -1.1777234634
 H          2.3628919061       -2.7438209468       -0.9253600534
 H          5.9096863804       -2.7969361095        1.5552115368
 H          4.8879863980       -1.8870373445        2.6900541912
 H          5.1016634069        0.1365071565        1.2848434170
 H          6.6941804850       -0.4443339684        1.7810325348
 H          7.2178761738       -1.1793071817       -0.4270754655
 H          5.5118146999       -1.3999253845       -0.8324536903
 H          6.5482561489        0.5385849728       -2.0277587506
 H          6.8316278374        1.3290596137       -0.4685335210
 H          5.9754821188        2.6690038061        1.1134559534
 H          4.5795112795        4.1378138787        2.4945525320
 H          2.1686412279        4.3391564590        2.1033884256
 H          1.0814524740        3.0690302442        0.2731417293
 H          0.5462393685        1.5835206144       -1.9450478002
 H          0.6375079245       -0.0284802607       -3.8276475428
 H          2.7359329061       -1.1436285588       -4.4103119136
 H          4.8103480912       -0.6831022563       -3.1781047486
 H          3.2684331351       -0.3591331561        2.5059620599
 H          1.1390304071        0.8010803731        2.2500218300
 H         -0.8183326296        4.2516962920        0.2997189937
 H         -1.6328098167        6.5440944219        0.7050240318
 H         -3.9908411345        6.9202647269        1.3341288697
 H         -5.5145126356        4.9954779603        1.5812722576
 H         -4.6985494270        2.7138939493        1.1903358378
 H         -4.5692328091       -1.0699004549        0.8121227050
 H         -6.8953064069       -1.3797292601        0.0924758037
 H         -7.9186818756        0.1908566871       -1.5126264362
 H         -6.5952568852        2.0777061745       -2.3972377100
 H         -4.2542879557        2.3812363111       -1.6903666753
 H         -1.2724491004       -2.2515128647        1.4716853635
  85
  -138.141138683600       8.231808280745351E-002 !
 F         -0.9733738728       -5.9115608914        0.6472803129
 C         -1.6513323248       -4.9234954790        1.2578058744
 F         -2.7127758078       -5.5163697054        1.8446889944
 F         -0.8711202772       -4.4861255726        2.2546115371
 C         -2.0689952779       -3.8420496954        0.3031859985
 C         -2.7110815971       -4.2063252156       -0.8749694123
 C         -3.1156557687       -3.2200690182       -1.7570252151
 C         -2.8853742870       -1.8870021085       -1.4705410260
 C         -2.2514208145       -1.5279767945       -0.2837323869
 N         -2.0318857368       -0.1834077063        0.0249594171
 C         -0.8620509900        0.3910121387        0.4648296387
 C          0.4163952332       -0.2865104482        0.5867846487
 C          0.8337071267       -1.2687527850       -0.3125158529
 C          2.1018200228       -1.7939157560       -0.2270976202
 C          2.9931008582       -1.3506617288        0.7526315266
 O          4.2390451482       -1.8859547627        0.7121400833
 C          5.3008675868       -1.1957171444        1.3480657271
 C          6.5745066615       -1.4091553059        0.5291430662
 C          6.4147466769       -1.0114980914       -0.9393713662
 C          6.2676210254        0.4960833001       -1.2007612853
 N          4.9383499124        1.0030139912       -0.9838628300
 C          4.5310734389        1.8583282222        0.0146003292
 C          5.2474143569        2.4034561531        1.0733171377
 C          4.5735825733        3.2226264991        1.9595306650
 C          3.2158289890        3.4973523638        1.8114118548
 C          2.4963475411        2.9669195220        0.7596074490
 C          3.1551500672        2.1492866016       -0.1479329362
 C          2.7272480661        1.4409298030       -1.3176221208
 C          1.5107582580        1.3441506746       -1.9778290160
 C          1.4365786570        0.5557161844       -3.1081305603
 C          2.5577703008       -0.1205386274       -3.5837220545
 C          3.7801428784       -0.0343890181       -2.9454557359
 C          3.8610486434        0.7472884365       -1.8009798927
 C          2.5627026284       -0.4089938467        1.6826592506
 C          1.2924292636        0.1214452280        1.5875771261
 N         -1.0259747282        1.6685421621        0.6866792950
 C         -2.3248487167        1.9681018686        0.3981624255
 C         -2.8337979693        3.3184740235        0.5880819947
 C         -1.9497792515        4.3930870100        0.5047127379
 C         -2.3994838349        5.6862994148        0.6862664249
 C         -3.7365557661        5.9259260860        0.9585227412
 C         -4.6183712021        4.8621981379        1.0596443059
 C         -4.1736657786        3.5660678354        0.8802976870
 C         -2.9748935838        0.8261694601       -0.0322870428
 C         -4.3499268070        0.6033597614       -0.4578558516
 C         -5.1062460124       -0.4382182075        0.0772858005
 C         -6.4087516609       -0.6397099625       -0.3397310444
 C         -6.9729470114        0.1918636742       -1.2924967752
 C         -6.2295097238        1.2333125803       -1.8248309205
 C         -4.9268404169        1.4390242089       -1.4137315504
 C         -1.8427682133       -2.5120401299        0.6124594108
 H         -2.8844519052       -5.2486046637       -1.0924944360
 H         -3.6101934073       -3.4923437294       -2.6760947920
 H         -3.1912651547       -1.1188192615       -2.1639058536
 H          0.1851998085       -1.5897372976       -1.1134711453
 H          2.4415682891       -2.5328831921       -0.9354460531
 H          5.4413129219       -1.5886612260        2.3647303104
 H          5.0757069679       -0.1286249266        1.4149482486
 H          7.3829762020       -0.8409838521        0.9934572192
 H          6.8370272323       -2.4678700260        0.5669151244
 H          7.2954205022       -1.3596412503       -1.4827190396
 H          5.5425340886       -1.5283809259       -1.3397618169
 H          6.5394208026        0.6933137129       -2.2451393214
 H          6.9588497711        1.0536421615       -0.5650885476
 H          6.2994972403        2.1995919813        1.2142665447
 H          5.1131931988        3.6544104721        2.7900075139
 H          2.7253337393        4.1334257547        2.5330656088
 H          1.4407178438        3.1582024124        0.6486974692
 H          0.6477930074        1.8743580726       -1.6057128727
 H          0.5002552807        0.4617887942       -3.6393053151
 H          2.4705839999       -0.7248584509       -4.4752175245
 H          4.6395990506       -0.5574376228       -3.3369365051
 H          3.2121068735       -0.0722600881        2.4753855565
 H          0.9678463278        0.8740765679        2.2880216250
 H         -0.9106427633        4.1933942114        0.2946935167
 H         -1.7060861651        6.5117843118        0.6154480127
 H         -4.0897402608        6.9369973935        1.0985005812
 H         -5.6593992416        5.0432524274        1.2853955744
 H         -4.8634513376        2.7416511503        0.9802863573
 H         -4.6777956046       -1.0796496307        0.8343389956
 H         -6.9862697662       -1.4474540037        0.0850623316
 H         -7.9902422160        0.0315946838       -1.6164713111
 H         -6.6663172945        1.8858535407       -2.5662040488
 H         -4.3435618401        2.2490820987       -1.8262691097
 H         -1.3504975505       -2.2353094427        1.5315210211
  85
  -138.140133358700       2.841056771432624E-002 !
 F         -4.5105567211       -4.0423307827        2.0588277739
 C         -4.0150134505       -4.5199083629        0.9060415280
 F         -3.7965084534       -5.8301574228        1.1013464534
 F         -5.0197143954       -4.4416874659        0.0089806304
 C         -2.7917150549       -3.7828528019        0.4441864702
 C         -1.8459096683       -4.4338961349       -0.3362498950
 C         -0.7416974372       -3.7280833397       -0.7847100913
 C         -0.5902930999       -2.3890363250       -0.4784779152
 C         -1.5468852096       -1.7404154017        0.2997284700
 N         -1.4273176736       -0.3755772087        0.5806036740
 C         -0.3391970696        0.3112732140        1.0681781357
 C          0.9430822926       -0.2691833849        1.4165597619
 C          2.0700543620        0.5409910023        1.2946838179
 C          3.3365893877        0.0334484632        1.4878568153
 C          3.5072674996       -1.3085264330        1.8247495913
 O          4.7113519742       -1.9355488137        1.9561049894
 C          5.8450504465       -1.3178177684        1.3782945580
 C          5.7132593517       -1.2044084698       -0.1459409375
 C          6.5852242140       -0.1039288011       -0.7474853120
 C          5.9997463381        0.4097497379       -2.0718379371
 N          4.7387101290        1.0720409141       -1.8736053535
 C          3.4864467462        0.5674957551       -2.1362852889
 C          3.1092635053       -0.6407670611       -2.7083419845
 C          1.7604067662       -0.8819162846       -2.8859167468
 C          0.7948938233        0.0477358996       -2.5018760043
 C          1.1573841842        1.2446573472       -1.9188079610
 C          2.5072583098        1.5089351979       -1.7348606227
 C          3.2196033356        2.6257563365       -1.1858913917
 C          2.8168255094        3.8277461805       -0.6188545110
 C          3.7870390507        4.7058236297       -0.1792482056
 C          5.1406088781        4.4002211599       -0.3065562189
 C          5.5640979760        3.2076612447       -0.8620370996
 C          4.5945996132        2.3129535085       -1.2954822952
 C          2.3756631382       -2.0921467974        2.0563849732
 C          1.1111583902       -1.5812267491        1.8596354946
 N         -0.6017846921        1.5883440135        1.1638504940
 C         -1.8817837584        1.7761108143        0.7353569667
 C         -2.4493176998        3.1143805056        0.6764766786
 C         -1.8951727821        4.1133912569        1.4768818237
 C         -2.4034209316        5.3970030152        1.4478899675
 C         -3.4685077732        5.7052745635        0.6166761984
 C         -4.0114540480        4.7234803073       -0.1958481381
 C         -3.5058345406        3.4371274432       -0.1730668609
 C         -2.4271440666        0.5566571420        0.3763259695
 C         -3.7464144160        0.1894386519       -0.1226496213
 C         -3.8870156361       -0.5978588412       -1.2643203098
 C         -5.1433140356       -0.9698659144       -1.7050609243
 C         -6.2728090504       -0.5611492913       -1.0162733136
 C         -6.1420401242        0.2325947391        0.1122344995
 C         -4.8891243337        0.6055567536        0.5591724711
 C         -2.6511984087       -2.4431342146        0.7707923059
 H         -1.9729591547       -5.4765272653       -0.5810622439
 H          0.0010800805       -4.2254255858       -1.3884329627
 H          0.2624715484       -1.8353807598       -0.8386584703
 H          1.9340185531        1.5738024171        1.0225272726
 H          4.1798559666        0.6925234468        1.3602598128
 H          6.6826175775       -1.9603620744        1.6589123129
 H          6.0103760052       -0.3289948792        1.8250994756
 H          5.9449071725       -2.1671171464       -0.6040730483
 H          4.6679805131       -0.9798083706       -0.3650100363
 H          6.6410622951        0.7359700517       -0.0528741533
 H          7.6001704180       -0.4649586004       -0.9179179041
 H          5.8521467082       -0.4221720588       -2.7625029181
 H          6.7002313901        1.1155473446       -2.5309895323
 H          3.8375296987       -1.3771545752       -3.0146215471
 H          1.4470320275       -1.8123228600       -3.3379929523
 H         -0.2490895108       -0.1728194678       -2.6727505199
 H          0.4131233990        1.9624240109       -1.6104748425
 H          1.7674303322        4.0622905214       -0.5232560348
 H          3.4988363376        5.6458010903        0.2666294140
 H          5.8766458983        5.1114683106        0.0384585592
 H          6.6179404743        2.9921444993       -0.9570781459
 H          2.5152255888       -3.1121026165        2.3781964135
 H          0.2560496766       -2.2095213528        2.0550261055
 H         -1.0645508718        3.8568170554        2.1157788277
 H         -1.9705316104        6.1615982440        2.0766399025
 H         -3.8700046450        6.7077433024        0.5973146250
 H         -4.8331730080        4.9622363506       -0.8556625735
 H         -3.9237719786        2.6840274780       -0.8229945581
 H         -3.0099416232       -0.9096795900       -1.8129571875
 H         -5.2407823890       -1.5833058715       -2.5884004820
 H         -7.2519735249       -0.8596799285       -1.3583257743
 H         -7.0205620784        0.5555600292        0.6506551694
 H         -4.7818219846        1.2194459686        1.4411772127
 H         -3.3899272542       -1.9528837830        1.3843008445
  85
  -138.140123460200       2.811453315886260E-002 !
 F         -3.1661175389       -5.3265726050        1.6638464945
 C         -1.9649536269       -4.9526132048        1.1720355384
 F         -1.1990549994       -4.6753387274        2.2362834010
 F         -1.4442980772       -6.0513934132        0.6017441603
 C         -2.0878629176       -3.8036730721        0.2126330988
 C         -2.4697027332       -4.0553546967       -1.1000909351
 C         -2.6192219326       -2.9951506460       -1.9769227872
 C         -2.3961090879       -1.6986723896       -1.5514317103
 C         -2.0173182618       -1.4526462452       -0.2345294350
 N         -1.8238071869       -0.1386239356        0.2050425752
 C         -0.7186653914        0.4200540588        0.8054172135
 C          0.5763706996       -0.1999325155        1.0028561710
 C          1.0242387245       -1.3181852633        0.2980738943
 C          2.3239967739       -1.7504836970        0.4295412263
 C          3.2230927303       -1.0697472337        1.2500005609
 O          4.5048966903       -1.5194593224        1.2500310506
 C          5.5391717050       -0.5956106751        1.5431654773
 C          6.7357778554       -0.9102286351        0.6441377824
 C          6.3749691330       -0.9460481628       -0.8421263374
 C          6.0292419484        0.4139806324       -1.4699736141
 N          4.6653871855        0.8288932555       -1.2696688398
 C          3.5799401485        0.2842808182       -1.9158614029
 C          3.5172282567       -0.7813637357       -2.8037288901
 C          2.2803620410       -1.1274244377       -3.3129083879
 C          1.1259930851       -0.4300172640       -2.9638819368
 C          1.1810902694        0.6369325969       -2.0901858739
 C          2.4107338561        0.9945309231       -1.5557759963
 C          2.8241782019        2.0138169352       -0.6378616694
 C          2.1346423534        2.9855372986        0.0734812921
 C          2.8487574266        3.8262098733        0.9026176114
 C          4.2318040292        3.7085276795        1.0197721355
 C          4.9375422403        2.7422974337        0.3280868942
 C          4.2268198435        1.8827486186       -0.5005519637
 C          2.7683502403        0.0119648377        1.9995767881
 C          1.4636565272        0.4366548703        1.8712021356
 N         -0.9408383362        1.6792279154        1.0906325334
 C         -2.2035406161        1.9800120428        0.6827205314
 C         -2.7583354191        3.3057211853        0.9125575985
 C         -4.1311633558        3.5279098866        1.0035931130
 C         -4.6163883843        4.8025968716        1.2267082521
 C         -3.7446891493        5.8697331841        1.3701714850
 C         -2.3778426969        5.6533138758        1.3018519433
 C         -1.8871588359        4.3819480028        1.0781202029
 C         -2.7746548441        0.8602088586        0.1043908740
 C         -4.0707603715        0.6493116777       -0.5258433610
 C         -4.8727877168       -0.4380149706       -0.1837683464
 C         -6.0922996290       -0.6283989397       -0.8065822446
 C         -6.5276281260        0.2597800638       -1.7755033555
 C         -5.7394282486        1.3476181113       -2.1161802454
 C         -4.5190430693        1.5420754583       -1.4993565734
 C         -1.8680216748       -2.5107234803        0.6572711216
 H         -2.6419526285       -5.0694100258       -1.4250573326
 H         -2.9115471606       -3.1818637945       -2.9982720906
 H         -2.5106770803       -0.8700587404       -2.2331442877
 H          0.3828805173       -1.8286905020       -0.4012870221
 H          2.6791758566       -2.5988172384       -0.1340330473
 H          5.8320160807       -0.6885690817        2.5980186369
 H          5.1940297585        0.4263272873        1.3654526671
 H          7.5151748289       -0.1688656778        0.8309639808
 H          7.1258663136       -1.8912585357        0.9207834640
 H          7.2271784355       -1.3577387307       -1.3862913042
 H          5.5306640977       -1.6230420617       -0.9728807739
 H          6.2062522472        0.3509323279       -2.5507931158
 H          6.6879090370        1.1874560993       -1.0693643644
 H          4.4013020516       -1.3268644877       -3.0973314760
 H          2.2070261073       -1.9562376829       -4.0022026790
 H          0.1797771279       -0.7324232300       -3.3896227127
 H          0.2920415396        1.1877748398       -1.8221766738
 H          1.0620209223        3.0584300788       -0.0104240194
 H          2.3351050593        4.5865600001        1.4716129478
 H          4.7668786938        4.3850163485        1.6703095691
 H          6.0101658951        2.6690328376        0.4399600090
 H          3.4296178241        0.5337023684        2.6739061725
 H          1.1135975813        1.2919954013        2.4256330332
 H         -4.8179708931        2.7001756684        0.9128177167
 H         -5.6826662569        4.9634468066        1.2949908822
 H         -4.1297679757        6.8640706676        1.5423148993
 H         -1.6933200376        6.4802466328        1.4249630554
 H         -0.8251500030        4.1985870662        1.0322505912
 H         -4.5488745238       -1.1252882258        0.5846112740
 H         -6.7064114675       -1.4726337298       -0.5300000416
 H         -7.4800639400        0.1077345898       -2.2605284417
 H         -6.0762011681        2.0451800197       -2.8686468726
 H         -3.9007122272        2.3874717367       -1.7632007232
 H         -1.5702712229       -2.3193560309        1.6766233656
  85
  -138.139966471100       2.381133150736216E-002 !
 F         -2.7215678887       -5.9527114287        0.8684745888
 C         -1.9078001177       -4.9239734565        1.1576612514
 F         -2.1467670639       -4.6006901558        2.4379843682
 F         -0.6550068030       -5.4219084170        1.1247621441
 C         -2.0779642445       -3.7646182034        0.2181210582
 C         -2.4131655098       -4.0017296921       -1.1096705707
 C         -2.5428180961       -2.9306816417       -1.9765476444
 C         -2.3367676017       -1.6390312871       -1.5285469151
 C         -1.9955984555       -1.4078702601       -0.1987395408
 N         -1.8189450552       -0.0965488985        0.2576553383
 C         -0.7229919103        0.4811992853        0.8587677114
 C          0.5803095154       -0.1109512468        1.0854058291
 C          1.0376617484       -1.2838282654        0.4831228499
 C          2.3432658402       -1.6887115135        0.6449466161
 C          3.2404001254       -0.9256756279        1.3911891819
 O          4.5281535562       -1.3572924827        1.4225882493
 C          5.5499550803       -0.3949300216        1.6189885942
 C          6.7507823211       -0.7835429545        0.7553331383
 C          6.3887299662       -0.9817703160       -0.7178007981
 C          6.0186936180        0.2989336291       -1.4838596165
 N          4.6443463485        0.7009438599       -1.3347621707
 C          3.5766616160        0.0632495299       -1.9222119254
 C          3.5466272731       -1.0903673696       -2.6943657169
 C          2.3215167553       -1.5228066648       -3.1643332015
 C          1.1467320318       -0.8264982138       -2.8888343973
 C          1.1697309763        0.3277989952       -2.1325471152
 C          2.3874324970        0.7758600365       -1.6403311897
 C          2.7701130008        1.8976785294       -0.8353728346
 C          2.0545185022        2.9254544008       -0.2370048287
 C          2.7441385351        3.8681889793        0.4977697934
 C          4.1286080477        3.7964837924        0.6327184732
 C          4.8606416348        2.7784031970        0.0517510748
 C          4.1751223695        1.8175368432       -0.6813650951
 C          2.7778166986        0.2151909255        2.0422953998
 C          1.4674288129        0.6103535872        1.8869873294
 N         -0.9630604227        1.7413548995        1.1280541374
 C         -2.2255608464        2.0229168151        0.7106734039
 C         -2.7972509875        3.3439502330        0.9262560483
 C         -4.1704815770        3.5427597570        1.0536709588
 C         -4.6720809751        4.8126434385        1.2679367389
 C         -3.8157874360        5.8973041199        1.3649604962
 C         -2.4479515451        5.7042922676        1.2585037162
 C         -1.9407182327        4.4377264762        1.0440860703
 C         -2.7805937684        0.8905964368        0.1413235584
 C         -4.0724202948        0.6669953365       -0.4918702683
 C         -4.8609986810       -0.4344012546       -0.1632396153
 C         -6.0805170897       -0.6294075722       -0.7845451654
 C         -6.5299824477        0.2680316612       -1.7384250824
 C         -5.7552926793        1.3696023075       -2.0658898574
 C         -4.5348917519        1.5686847872       -1.4507767758
 C         -1.8691777761       -2.4766183030        0.6835092575
 H         -2.5750235840       -5.0117050688       -1.4520037948
 H         -2.8044667543       -3.1055453546       -3.0083193932
 H         -2.4367546892       -0.8022024117       -2.2025688973
 H          0.4004048798       -1.8669465911       -0.1602308788
 H          2.7020664239       -2.5832333575        0.1608023181
 H          5.8441824505       -0.3750703999        2.6774155859
 H          5.1906575484        0.5987497115        1.3378553198
 H          7.5181923717       -0.0141100491        0.8608960904
 H          7.1569682474       -1.7236239718        1.1327677190
 H          7.2471850438       -1.4343399855       -1.2179585152
 H          5.5557846907       -1.6827742460       -0.7735981132
 H          6.2050534293        0.1296740701       -2.5516277333
 H          6.6571335268        1.1241598702       -1.1613461298
 H          4.4465574394       -1.6384910807       -2.9288412762
 H          2.2732395204       -2.4212526385       -3.7623566670
 H          0.2100841308       -1.2005602658       -3.2771052613
 H          0.2642348404        0.8774141688       -1.9228412641
 H          0.9811848366        2.9686723953       -0.3335597222
 H          2.2096927013        4.6745020919        0.9771863596
 H          4.6438053878        4.5517131341        1.2083041351
 H          5.9341758062        2.7438735832        0.1730896305
 H          3.4371886809        0.8037169789        2.6613139023
 H          1.1094945417        1.5067487013        2.3663208027
 H         -4.8435577297        2.7004827073        0.9982484026
 H         -5.7385508058        4.9562075749        1.3662124475
 H         -4.2134240440        6.8876160893        1.5314518014
 H         -1.7759740823        6.5458784385        1.3444146676
 H         -0.8776340103        4.2710548183        0.9678109819
 H         -4.5274119283       -1.1283816323        0.5948569909
 H         -6.6838588831       -1.4849163296       -0.5187733978
 H         -7.4826036806        0.1124656327       -2.2219076457
 H         -6.1027456604        2.0744388329       -2.8066208069
 H         -3.9275834930        2.4250087749       -1.7046293558
 H         -1.6063731909       -2.2976988641        1.7147849247
