  61
        -97.87504748
 C         -6.7670252191        4.0894159448        0.0513827566
 C         -5.6302735857        3.7746816646       -0.6751018201
 C         -5.1497822291        2.4798002921       -0.6969326190
 C         -5.8009336836        1.4772094670        0.0209992746
 N         -5.3198625551        0.1618326790        0.0020710825
 C         -6.2274848583       -0.9051891012       -0.0242401674
 C         -7.4003864798       -0.8150422391       -0.7727454891
 C         -8.2969783812       -1.8658264773       -0.7896181278
 C         -8.0376176008       -3.0212572298       -0.0707698462
 C         -6.8721915940       -3.1167665557        0.6720707911
 C         -5.9733042890       -2.0682551863        0.7017369556
 C         -3.9492829262       -0.0846131558        0.0052878936
 C         -3.0749271393        0.7523220166        0.7028002688
 C         -1.7192486248        0.5093842101        0.6967264267
 C         -1.1859176396       -0.5820194191        0.0098580099
 C          0.2540495212       -0.8388027692        0.0148485451
 C          0.7543795973       -2.1631243917        0.0488745402
 N          2.0156706795       -2.4841713427        0.0545983670
 C          2.9314898255       -1.5029788749        0.0287003962
 N          4.2305197323       -1.8805654817        0.0333762396
 C          5.0952556998       -0.9071060753        0.0114783606
 C          4.7087486416        0.4922512879       -0.0177923092
 N          3.4650706326        0.8781464834       -0.0213806540
 C          2.5492813535       -0.1256815930        0.0031492517
 C          1.1816378236        0.1832228219       -0.0050551510
 C          5.9225491023        1.2952735667       -0.0346126796
 C          6.2069751761        2.6373770235       -0.0601219289
 C          7.5580414891        3.0321256900       -0.0649745722
 C          8.5973244628        2.1327133426       -0.0440276118
 C          8.3400987922        0.7432212701       -0.0172185492
 C          9.2742403228       -0.3173544296        0.0092548413
 C          8.8440142653       -1.6227232637        0.0365681520
 C          7.4818909662       -1.9776116224        0.0393444925
 C          6.5488916567       -0.9715244856        0.0137566066
 C          6.9933402868        0.3711334942       -0.0140967613
 C         -2.0636582048       -1.4201510026       -0.6788090913
 C         -3.4190278151       -1.1744713052       -0.6891475679
 C         -6.9429352360        1.7997052606        0.7532154233
 C         -7.4205262448        3.0958706425        0.7618637476
 H         -7.1413183573        5.1015632310        0.0630407799
 H         -5.1177326104        4.5413858694       -1.2370930064
 H         -4.2698486918        2.2339994484       -1.2731014141
 H         -7.5999725181        0.0819982409       -1.3403247399
 H         -9.2006756656       -1.7842563564       -1.3752528373
 H         -8.7388780894       -3.8413617633       -0.0888863111
 H         -6.6646674683       -4.0111299972        1.2407642945
 H         -5.0705490887       -2.1399456595        1.2904785936
 H         -3.4717792732        1.5904441305        1.2561460150
 H         -1.0633020007        1.1557473965        1.2605202122
 H          0.0650401965       -2.9968451037        0.0934075919
 H          0.8882988964        1.2213579725       -0.0501827117
 H          5.4218829206        3.3773861133       -0.0760675087
 H          7.7801434127        4.0893442079       -0.0852032328
 H          9.6192177257        2.4836330340       -0.0478364974
 H         10.3313605127       -0.0937714284        0.0089457197
 H          9.5776158762       -2.4159089974        0.0573865044
 H          7.1856460974       -3.0146683624        0.0618519740
 H         -1.6739805398       -2.2540163748       -1.2432331969
 H         -4.0811058791       -1.8220438522       -1.2444227655
 H         -7.4489945475        1.0278318883        1.3142999698
 H         -8.3049198532        3.3327406419        1.3345866049
