  61
  -97.8750474800000       0.145371465044097      !
 C         -6.7670252191        4.0894159448        0.0513827566
 C         -5.6302735857        3.7746816646       -0.6751018201
 C         -5.1497822291        2.4798002921       -0.6969326190
 C         -5.8009336836        1.4772094670        0.0209992746
 N         -5.3198625551        0.1618326790        0.0020710825
 C         -6.2274848583       -0.9051891012       -0.0242401674
 C         -7.4003864798       -0.8150422391       -0.7727454891
 C         -8.2969783812       -1.8658264773       -0.7896181278
 C         -8.0376176008       -3.0212572298       -0.0707698462
 C         -6.8721915940       -3.1167665557        0.6720707911
 C         -5.9733042890       -2.0682551863        0.7017369556
 C         -3.9492829262       -0.0846131558        0.0052878936
 C         -3.0749271393        0.7523220166        0.7028002688
 C         -1.7192486248        0.5093842101        0.6967264267
 C         -1.1859176396       -0.5820194191        0.0098580099
 C          0.2540495212       -0.8388027692        0.0148485451
 C          0.7543795973       -2.1631243917        0.0488745402
 N          2.0156706795       -2.4841713427        0.0545983670
 C          2.9314898255       -1.5029788749        0.0287003962
 N          4.2305197323       -1.8805654817        0.0333762396
 C          5.0952556998       -0.9071060753        0.0114783606
 C          4.7087486416        0.4922512879       -0.0177923092
 N          3.4650706326        0.8781464834       -0.0213806540
 C          2.5492813535       -0.1256815930        0.0031492517
 C          1.1816378236        0.1832228219       -0.0050551510
 C          5.9225491023        1.2952735667       -0.0346126796
 C          6.2069751761        2.6373770235       -0.0601219289
 C          7.5580414891        3.0321256900       -0.0649745722
 C          8.5973244628        2.1327133426       -0.0440276118
 C          8.3400987922        0.7432212701       -0.0172185492
 C          9.2742403228       -0.3173544296        0.0092548413
 C          8.8440142653       -1.6227232637        0.0365681520
 C          7.4818909662       -1.9776116224        0.0393444925
 C          6.5488916567       -0.9715244856        0.0137566066
 C          6.9933402868        0.3711334942       -0.0140967613
 C         -2.0636582048       -1.4201510026       -0.6788090913
 C         -3.4190278151       -1.1744713052       -0.6891475679
 C         -6.9429352360        1.7997052606        0.7532154233
 C         -7.4205262448        3.0958706425        0.7618637476
 H         -7.1413183573        5.1015632310        0.0630407799
 H         -5.1177326104        4.5413858694       -1.2370930064
 H         -4.2698486918        2.2339994484       -1.2731014141
 H         -7.5999725181        0.0819982409       -1.3403247399
 H         -9.2006756656       -1.7842563564       -1.3752528373
 H         -8.7388780894       -3.8413617633       -0.0888863111
 H         -6.6646674683       -4.0111299972        1.2407642945
 H         -5.0705490887       -2.1399456595        1.2904785936
 H         -3.4717792732        1.5904441305        1.2561460150
 H         -1.0633020007        1.1557473965        1.2605202122
 H          0.0650401965       -2.9968451037        0.0934075919
 H          0.8882988964        1.2213579725       -0.0501827117
 H          5.4218829206        3.3773861133       -0.0760675087
 H          7.7801434127        4.0893442079       -0.0852032328
 H          9.6192177257        2.4836330340       -0.0478364974
 H         10.3313605127       -0.0937714284        0.0089457197
 H          9.5776158762       -2.4159089974        0.0573865044
 H          7.1856460974       -3.0146683624        0.0618519740
 H         -1.6739805398       -2.2540163748       -1.2432331969
 H         -4.0811058791       -1.8220438522       -1.2444227655
 H         -7.4489945475        1.0278318883        1.3142999698
 H         -8.3049198532        3.3327406419        1.3345866049
  61
  -97.8750457200000       0.145100973857677      !
 C         -6.7488918710        4.0838057748        0.3008720798
 C         -7.4125251816        3.1579799876       -0.4874106498
 C         -6.9408235646        1.8640465083       -0.5949886884
 C         -5.7947918983        1.4747142314        0.0974353693
 N         -5.3194559128        0.1608313979       -0.0016358008
 C         -6.2303721148       -0.9020284169       -0.0584811360
 C         -5.9815326073       -2.0033230022       -0.8768433407
 C         -6.8820426103       -3.0495575317       -0.9275646285
 C         -8.0443017906       -3.0122525286       -0.1746272389
 C         -8.2989394158       -1.9175291083        0.6351168263
 C         -7.4004192026       -0.8702443763        0.6991364974
 C         -3.9495083326       -0.0886561335       -0.0292114461
 C         -3.0749476325        0.8016920172       -0.6568394684
 C         -1.7195817799        0.5577442971       -0.6722050377
 C         -1.1867791778       -0.5870062796       -0.0780415582
 C          0.2534268673       -0.8413996887       -0.1027962374
 C          0.7561207007       -2.1576087266       -0.2453998391
 N          2.0180324144       -2.4751349681       -0.2741969415
 C          2.9321066125       -1.4980190105       -0.1646335616
 N          4.2318986741       -1.8721294892       -0.1940544476
 C          5.0946538256       -0.9025166911       -0.0869596610
 C          4.7054584871        0.4892697268        0.0549789941
 N          3.4610832814        0.8717465230        0.0841458973
 C          2.5473685288       -0.1281198100       -0.0266727351
 C          1.1792224973        0.1769353935        0.0037768504
 C          5.9175798791        1.2894990741        0.1470953362
 C          6.1992464165        2.6251058403        0.2881130297
 C          7.5495043645        3.0196649575        0.3385624026
 C          8.5905797311        2.1260930063        0.2527072270
 C          8.3361757641        0.7434289681        0.1067238451
 C          9.2724965338       -0.3103240609        0.0024530319
 C          8.8448633206       -1.6093959975       -0.1365112387
 C          7.4834652415       -1.9641786346       -0.1824126779
 C          6.5483945146       -0.9646967545       -0.0836678580
 C          6.9901744233        0.3714958635        0.0589947303
 C         -2.0648615927       -1.4789036809        0.5387638633
 C         -3.4199948540       -1.2333420651        0.5709988106
 C         -5.1335428623        2.4089410210        0.8941134193
 C         -5.6078787261        3.7028656898        0.9879451362
 H         -7.1186370739        5.0946089646        0.3799614778
 H         -8.3004581364        3.4470246631       -1.0299163970
 H         -7.4547598216        1.1457925560       -1.2167913647
 H         -5.0810184297       -2.0291501089       -1.4727985251
 H         -6.6782308869       -3.8958460822       -1.5667550053
 H         -8.7466600054       -3.8303310149       -0.2188577840
 H         -9.2002225276       -1.8817925634        1.2290227809
 H         -7.5959293611       -0.0217986764        1.3383022706
 H         -3.4713545263        1.6830939554       -1.1385211023
 H         -1.0632897822        1.2477385180       -1.1811674572
 H          0.0683413299       -2.9860031383       -0.3597969810
 H          0.8841530520        1.2074282946        0.1336874450
 H          5.4126558379        3.3602952553        0.3598104688
 H          7.7695252167        4.0720658235        0.4506757355
 H          9.6117883526        2.4765845857        0.2966271512
 H         10.3292424531       -0.0865091526        0.0327267929
 H          9.5800642513       -2.3974484401       -0.2142930307
 H          7.1894269453       -2.9962071510       -0.2924669710
 H         -1.6757414544       -2.3573793379        1.0313710159
 H         -4.0822291898       -1.9238407188        1.0716435746
 H         -4.2507556131        2.1107516112        1.4403707657
 H         -5.0875303054        4.4158768011        1.6102453328
  61
  -97.8750437200000       0.144794208384355      !
 C         -7.8857923179        3.3736205002        0.1514036550
 C         -6.7037001569        3.4373185225       -0.5682043174
 C         -5.8567383830        2.3473269058       -0.6205655465
 C         -6.1800401750        1.1736002786        0.0595834213
 N         -5.3249564344        0.0651003772        0.0100814972
 C         -5.8660812291       -1.2249370481       -0.0602160627
 C         -7.0127531451       -1.4697537475       -0.8148778249
 C         -7.5468736536       -2.7423204426       -0.8752539754
 C         -6.9465056645       -3.7886879851       -0.1941761580
 C         -5.8054855346       -3.5510690443        0.5546954983
 C         -5.2682610541       -2.2805653075        0.6275785862
 C         -3.9439314758        0.2456585101        0.0220815499
 C         -3.3668249188        1.2816227058        0.7601793634
 C         -2.0017911225        1.4664732681        0.7601015020
 C         -1.1610907024        0.6188922181        0.0374057750
 C          0.2882336506        0.8157952778        0.0357312455
 C          0.8421572849        2.1190001381        0.0590088180
 N          2.1154053958        2.3887032381        0.0613503475
 C          2.9906134290        1.3710950558        0.0363618057
 N          4.3039184454        1.6955360091        0.0473632404
 C          5.1282810626        0.6877881530        0.0189369821
 C          4.6852475582       -0.6944672795       -0.0241634367
 N          3.4268674707       -1.0293019447       -0.0347523328
 C          2.5526849324        0.0107954584       -0.0029338256
 C          1.1736458586       -0.2426566035        0.0009364595
 C          5.8654288291       -1.5457577687       -0.0514070494
 C          6.0951689063       -2.8980225338       -0.0935562087
 C          7.4291180127       -3.3472214444       -0.1062257089
 C          8.5040974549       -2.4908856275       -0.0777505244
 C          8.3034713219       -1.0924014769       -0.0336007894
 C          9.2799265399       -0.0709144163        0.0018042820
 C          8.9030062218        1.2504941458        0.0443593348
 C          7.5563752088        1.6602432833        0.0542746220
 C          6.5833323330        0.6931533360        0.0203646817
 C          6.9728928046       -0.6660791083       -0.0224169631
 C         -1.7412861992       -0.4215733543       -0.6895086394
 C         -3.1063649694       -0.6037895437       -0.7046851288
 C         -7.3693222844        1.1156038032        0.7852102967
 C         -8.2140455335        2.2080195949        0.8242422794
 H         -8.5467474220        4.2260454747        0.1868322478
 H         -6.4426171592        4.3393744304       -1.1015583163
 H         -4.9411953245        2.3949573468       -1.1917363158
 H         -7.4771158216       -0.6568073718       -1.3535917795
 H         -8.4344843763       -2.9188915085       -1.4645468273
 H         -7.3645489170       -4.7823002777       -0.2469219842
 H         -5.3340291458       -4.3593633367        1.0939431581
 H         -4.3856867051       -2.0945099797        1.2220367367
 H         -4.0007781729        1.9365255470        1.3392506401
 H         -1.5766348493        2.2590553018        1.3573992836
 H          0.1873990021        2.9812919400        0.0558178746
 H          0.8390834375       -1.2693311031       -0.0004410786
 H          5.2806475555       -3.6055148341       -0.1152706695
 H          7.6081062723       -4.4124677714       -0.1394802431
 H          9.5109509153       -2.8828899809       -0.0891324875
 H         10.3271429570       -0.3371025872       -0.0051099362
 H          9.6681939878        2.0130251919        0.0711219401
 H          7.3024679836        2.7080432964        0.0890109557
 H         -1.1140611902       -1.0741464652       -1.2781762341
 H         -3.5391940914       -1.4013057188       -1.2901411624
 H         -7.6226723269        0.2104868552        1.3174539129
 H         -9.1312597496        2.1508723217        1.3915822588
  61
  -97.8748765300000       0.121315414607871      !
 C         -6.6108044292        4.1176578633        0.0299973479
 C         -5.4481974055        3.7690265145       -0.6377230026
 C         -5.0140940931        2.4577750141       -0.6487166208
 C         -5.7383738493        1.4727574704        0.0219061009
 N         -5.3028085676        0.1405420603        0.0177277029
 C         -6.2439918862       -0.8902486909       -0.0996289772
 C         -7.3575949838       -0.7362484186       -0.9246075074
 C         -8.2884370360       -1.7510273268       -1.0331764270
 C         -8.1223350200       -2.9334458854       -0.3307873117
 C         -7.0164371265       -3.0921553978        0.4883090483
 C         -6.0840751590       -2.0800267395        0.6096869582
 C         -3.9429824117       -0.1478596175        0.0947617316
 C         -3.0864394770        0.6666790291        0.8399705018
 C         -1.7343816468        0.4094542780        0.8802232552
 C         -1.1883781212       -0.6786678716        0.1983618268
 C          0.2539835580       -0.9214375449        0.2106168737
 C          0.7779379589       -2.2360803681        0.2479513968
 N          2.0451394756       -2.5340922903        0.2292255445
 C          2.9423192117       -1.5371581299        0.1684233529
 N          4.2476570863       -1.8907167447        0.1233636353
 C          5.0922641832       -0.9016342775        0.0553680282
 C          4.6789338519        0.4903477594        0.0356994474
 N          3.4295656047        0.8534905569        0.0836023906
 C          2.5347011336       -0.1670665751        0.1475174439
 C          1.1623329891        0.1169714767        0.1708410657
 C          5.8741831261        1.3157118777       -0.0512588278
 C          6.1299036308        2.6626379738       -0.1089583207
 C          7.4702187511        3.0828931015       -0.1991483879
 C          8.5260922459        2.2033080196       -0.2317532140
 C          8.2981987880        0.8095379710       -0.1739229286
 C          9.2524799909       -0.2329464260       -0.1979261934
 C          8.8497273087       -1.5458832124       -0.1350744141
 C          7.4973933192       -1.9264208587       -0.0459169761
 C          6.5451768562       -0.9385704044       -0.0201978198
 C          6.9617316825        0.4119446412       -0.0839799193
 C         -2.0510514200       -1.5093483908       -0.5170047250
 C         -3.4023429811       -1.2466137660       -0.5772249508
 C         -6.9073621481        1.8287259140        0.6931083308
 C         -7.3379640397        3.1413962277        0.6911386683
 H         -6.9481121183        5.1427971142        0.0340411949
 H         -4.8784708819        4.5219682798       -1.1620136399
 H         -4.1135855895        2.1859116158       -1.1795686424
 H         -7.4836316727        0.1815988758       -1.4799368843
 H         -9.1451449334       -1.6199238371       -1.6775375727
 H         -8.8495542073       -3.7257054513       -0.4212401786
 H         -6.8821775871       -4.0082071317        1.0443413842
 H         -5.2280555504       -2.2010809724        1.2571981767
 H         -3.4938035495        1.5046484017        1.3857755455
 H         -1.0912247983        1.0442501838        1.4712954018
 H          0.1042227041       -3.0812936036        0.3133323300
 H          0.8487445251        1.1491889427        0.1246756333
 H          5.3306071741        3.3871388441       -0.0875326204
 H          7.6699827726        4.1439117452       -0.2445838527
 H          9.5387701649        2.5734060230       -0.3027989333
 H         10.3029444193        0.0104231318       -0.2677833369
 H          9.5982314186       -2.3249519514       -0.1566113628
 H          7.2233558987       -2.9687728977        0.0001407788
 H         -1.6504013887       -2.3470912117       -1.0680337268
 H         -4.0500610008       -1.8828158133       -1.1616975312
 H         -7.4710985196        1.0697347877        1.2154372459
 H         -8.2440659825        3.4045926546        1.2164450912
  61
  -97.8748113200000       0.113226359978133      !
 C         -7.5206662303        2.8967516516        2.2088142259
 C         -8.0660468322        1.6661717155        1.8809926264
 C         -7.3409111998        0.7549679722        1.1379304930
 C         -6.0536560973        1.0693365180        0.7037779969
 N         -5.3198041895        0.1509011364       -0.0580651802
 C         -5.9758066306       -0.6253524569       -1.0222773571
 C         -5.6187217062       -1.9588227426       -1.2197102116
 C         -6.2693539339       -2.7190933187       -2.1719225951
 C         -7.2873068672       -2.1689401247       -2.9336468399
 C         -7.6493239217       -0.8462983844       -2.7373269275
 C         -6.9993110917       -0.0755450437       -1.7930064010
 C         -3.9473717194        0.0140454923        0.1371561907
 C         -3.0992544416       -0.2692836914       -0.9358590458
 C         -1.7421492610       -0.4013567545       -0.7394029259
 C         -1.1820840903       -0.2627921927        0.5307092110
 C          0.2601039045       -0.4086826200        0.7329866920
 C          0.7686947403       -1.0420106759        1.8927113302
 N          2.0319765321       -1.2134587190        2.1553788910
 C          2.9407308307       -0.7634372524        1.2758514685
 N          4.2423683901       -0.9531172884        1.5924573423
 C          5.1000934468       -0.5055565337        0.7209129724
 C          4.7039329828        0.1526785349       -0.5114477146
 N          3.4577542299        0.3439101800       -0.8370053937
 C          2.5491809527       -0.1165147075        0.0625932335
 C          1.1796940322        0.0505826262       -0.1878425259
 C          5.9119372486        0.5201312621       -1.2351503301
 C          6.1869660798        1.1474855168       -2.4241338715
 C          7.5351918159        1.3252186834       -2.7874964562
 C          8.5806924355        0.8981625022       -2.0039705441
 C          8.3331853411        0.2481380071       -0.7734980788
 C          9.2747604892       -0.2532886496        0.1538993298
 C          8.8536571928       -0.8630722193        1.3118606032
 C          7.4940707834       -1.0224669696        1.6399560241
 C          6.5540617061       -0.5459726700        0.7608936709
 C          6.9890809208        0.0806119498       -0.4304403950
 C         -2.0327369896        0.0172270165        1.6003416579
 C         -3.3901756471        0.1569953843        1.4099344071
 C         -5.5110980993        2.3113399119        1.0317746131
 C         -6.2410598297        3.2125976355        1.7821667318
 H         -8.0890379430        3.6049872961        2.7920244570
 H         -9.0612085919        1.4096897987        2.2129258845
 H         -7.7642725516       -0.2072335081        0.8894973376
 H         -4.8325685899       -2.3921336155       -0.6190241523
 H         -5.9855167479       -3.7514837286       -2.3127796148
 H         -7.7955718804       -2.7672319716       -3.6741576076
 H         -8.4387300602       -0.4077637757       -3.3295907343
 H         -7.2776158867        0.9577921584       -1.6459919486
 H         -3.5152703679       -0.3793255757       -1.9262730708
 H         -1.1050463145       -0.6302355512       -1.5806417673
 H          0.0841793696       -1.4443107330        2.6288848870
 H          0.8790495065        0.5611671943       -1.0904837529
 H          5.3967905112        1.4986682910       -3.0695371683
 H          7.7498504639        1.8190507133       -3.7244531897
 H          9.6001330667        1.0574590817       -2.3249592424
 H         10.3303142568       -0.1532868494       -0.0545999713
 H          9.5927402721       -1.2384840452        2.0048311408
 H          7.2051438743       -1.5072042396        2.5594256489
 H         -1.6219714025        0.1441944264        2.5908247857
 H         -4.0336689450        0.3744296154        2.2493601310
 H         -4.5175876965        2.5633627731        0.6910647533
 H         -5.8103760320        4.1722876557        2.0270860999
  61
  -97.8748111400000       0.113204795232881      !
 C         -7.4964241841        3.2656624026        1.7006401687
 C         -6.2168851489        3.4925256652        1.2205914196
 C         -5.4959494090        2.4680888680        0.6385587710
 C         -6.0471726274        1.1911589265        0.5368053629
 N         -5.3212851827        0.1486545823       -0.0537824811
 C         -5.9830063740       -0.7843552552       -0.8621278177
 C         -7.0193469008       -0.3805589333       -1.7031777663
 C         -7.6740310474       -1.3051042320       -2.4936626396
 C         -7.3038605006       -2.6397254386       -2.4661318276
 C         -6.2733235259       -3.0455595991       -1.6340270696
 C         -5.6185488522       -2.1301679203       -0.8331531676
 C         -3.9476009003        0.0453870040        0.1557621109
 C         -3.3844452010        0.4058377811        1.3819647815
 C         -2.0260801094        0.3004799492        1.5874028531
 C         -1.1803257891       -0.1616354406        0.5787926077
 C          0.2629072848       -0.2700905916        0.7961427814
 C          0.7786084734       -0.6803759398        2.0493931629
 N          2.0434698411       -0.7978535400        2.3330405277
 C          2.9471309713       -0.5169044422        1.3809257693
 N          4.2507067484       -0.6403107688        1.7212465681
 C          5.1031068970       -0.3653679868        0.7758952877
 C          4.6993449125        0.0429757576       -0.5578816524
 N          3.4511213137        0.1706178156       -0.9061566173
 C          2.5482004946       -0.1087848246        0.0702457140
 C          1.1772441666        0.0112655417       -0.1985132026
 C          5.9027480490        0.2603868649       -1.3469440023
 C          6.1702247091        0.6403263679       -2.6380772317
 C          7.5161026439        0.7383699115       -3.0385084359
 C          8.5665228889        0.4716576792       -2.1928761858
 C          8.3267921004        0.0775785935       -0.8568575635
 C          9.2740950998       -0.2349864396        0.1446944603
 C          8.8602620785       -0.6054306262        1.4023210686
 C          7.5027584947       -0.6951748149        1.7636564081
 C          6.5573348357       -0.3974803143        0.8145217165
 C          6.9849059130       -0.0156638373       -0.4787449418
 C         -1.7466514243       -0.5182399292       -0.6453035434
 C         -3.1045137256       -0.4203128430       -0.8557254848
 C         -7.3341419148        0.9671234050        1.0244597768
 C         -8.0504465647        2.0001750675        1.5971945919
 H         -8.0576082093        4.0693461076        2.1521898962
 H         -5.7785228825        4.4769958026        1.2921779384
 H         -4.5029181331        2.6498602356        0.2544216665
 H         -7.3037565874        0.6610438575       -1.7325655396
 H         -8.4736421532       -0.9786905335       -3.1420477033
 H         -7.8147716471       -3.3583940250       -3.0884330528
 H         -5.9816057543       -4.0849228558       -1.6011346797
 H         -4.8235731538       -2.4510244462       -0.1760704685
 H         -4.0240188340        0.7654605647        2.1742117998
 H         -1.6109235016        0.5987425435        2.5384698051
 H          0.0987295821       -0.9418656900        2.8504310778
 H          0.8717665445        0.3450325690       -1.1789356268
 H          5.3759888582        0.8595152756       -3.3347798587
 H          7.7248532078        1.0383411278       -4.0553586930
 H          9.5838466219        0.5621591972       -2.5455484405
 H         10.3282534301       -0.1796165875       -0.0859557804
 H          9.6037374474       -0.8385560737        2.1510936207
 H          7.2195030973       -0.9904474425        2.7618287653
 H         -1.1139725452       -0.8909974484       -1.4368778362
 H         -3.5249322021       -0.6992645175       -1.8104605728
 H         -7.7641054325       -0.0211527664        0.9530486907
 H         -9.0449590629        1.8125246683        1.9741522709
  61
  -97.8747948200000       0.111266562433597      !
 C         -7.1513172394        3.6826923377       -1.2723655357
 C         -6.1386892927        3.1025090787       -2.0188045158
 C         -5.5339970624        1.9367423835       -1.5907384560
 C         -5.9326255386        1.3364375324       -0.3967778097
 N         -5.3200773420        0.1552679230        0.0412109198
 C         -6.0876151037       -0.8376797676        0.6620493975
 C         -7.3848126632       -1.1042564410        0.2253841807
 C         -8.1410825616       -2.0791912219        0.8465950212
 C         -7.6178704956       -2.8071878237        1.9026718118
 C         -6.3286214561       -2.5480691708        2.3383689729
 C         -5.5676086541       -1.5693021298        1.7294921549
 C         -3.9487394236       -0.0243604521       -0.1317847578
 C         -3.0704332613        1.0559227241       -0.0229388534
 C         -1.7147670562        0.8740086602       -0.1862235830
 C         -1.1873231720       -0.3856191512       -0.4710674123
 C          0.2546939445       -0.5697519243       -0.6414470693
 C          0.7636250011       -1.4570622648       -1.6201927497
 N          2.0272919688       -1.6808084506       -1.8382797362
 C          2.9357139321       -1.0334177958       -1.0914352219
 N          4.2375518370       -1.2999645122       -1.3462234805
 C          5.0945254683       -0.6569720431       -0.6058714460
 C          4.6974524974        0.2854376620        0.4252971400
 N          3.4513054419        0.5584049513        0.6858257156
 C          2.5436950403       -0.1051968312       -0.0773889901
 C          1.1740418943        0.1107608521        0.1304715715
 C          5.9044773357        0.8110288311        1.0455812800
 C          6.1778921323        1.7068969514        2.0484266412
 C          7.5254639741        1.9578405435        2.3684053701
 C          8.5716690444        1.3444627522        1.7211817352
 C          8.3256602726        0.4158085366        0.6844032727
 C          9.2680074711       -0.3059922034       -0.0830777171
 C          8.8481555210       -1.1772262025       -1.0602739010
 C          7.4892288228       -1.4003215981       -1.3516329021
 C          6.5483522235       -0.7150115931       -0.6247448433
 C          6.9822054563        0.1807445542        0.3806235580
 C         -2.0684897157       -1.4607330809       -0.5866301986
 C         -3.4248847229       -1.2872120869       -0.4164924025
 C         -6.9504116979        1.9255347352        0.3522504349
 C         -7.5541788180        3.0874278736       -0.0881288913
 H         -7.6234626404        4.5919722800       -1.6115832926
 H         -5.8222071872        3.5559989585       -2.9464955668
 H         -4.7511858370        1.4801812969       -2.1785570257
 H         -7.7913202539       -0.5439067168       -0.6037298909
 H         -9.1434719892       -2.2776316249        0.4969424141
 H         -8.2103331667       -3.5709113960        2.3827544512
 H         -5.9140751144       -3.1064071252        3.1646746442
 H         -4.5666259811       -1.3614699982        2.0779932836
 H         -3.4621197378        2.0378430915        0.1974010941
 H         -1.0525276603        1.7230661948       -0.1060504521
 H          0.0799836069       -1.9918501672       -2.2675273044
 H          0.8721689135        0.7928878032        0.9111906166
 H          5.3869007467        2.2103018286        2.5823456470
 H          7.7390039503        2.6637656023        3.1582187495
 H          9.5904932819        1.5687089250        2.0027440813
 H         10.3231435527       -0.1674859864        0.1041559495
 H          9.5878194552       -1.7164493729       -1.6346497010
 H          7.2016102696       -2.0923601004       -2.1277711958
 H         -1.6830376444       -2.4478071387       -0.7941507589
 H         -4.0934256951       -2.1304223346       -0.5068540476
 H         -7.2598527588        1.4670873506        1.2800174921
 H         -8.3399403092        3.5350865546        0.5021995554
  61
  -97.8746158900000       9.207339058457656E-002 !
 C         -6.9530063484        3.7733974441       -1.2489459301
 C         -5.9006969601        3.1930752498       -1.9381662786
 C         -5.3609107146        1.9951620885       -1.5118923657
 C         -5.8646232075        1.3632285548       -0.3755020939
 N         -5.3214871150        0.1486860190        0.0660795216
 C         -6.1785112132       -0.8459081704        0.5555709545
 C         -7.4236032385       -1.0545830365       -0.0363947111
 C         -8.2717368549       -2.0290476160        0.4526257106
 C         -7.8922698101       -2.8128108878        1.5299920113
 C         -6.6554061524       -2.6106172050        2.1202788241
 C         -5.8033597070       -1.6333502929        1.6433208356
 C         -3.9494565896       -0.0730639469       -0.0115037403
 C         -3.0487577572        0.9821313501        0.1536786120
 C         -1.6926110119        0.7704172751        0.0422193735
 C         -1.1807019045       -0.4982310075       -0.2341935160
 C          0.2588658207       -0.6998740218       -0.4013405113
 C          0.7515363054       -1.6304946243       -1.3488026960
 N          2.0104250578       -1.8524319818       -1.5929988454
 C          2.9327532354       -1.1532809781       -0.9129000574
 N          4.2285914744       -1.4001426309       -1.2124604913
 C          5.0990770578       -0.6949733715       -0.5484756498
 C          4.7221139163        0.2870615691        0.4526126628
 N          3.4815938201        0.5364257232        0.7604777581
 C          2.5595351094       -0.1859260979        0.0711290441
 C          1.1941552097        0.0193770892        0.3155229154
 C          5.9402795018        0.8865628128        0.9771953537
 C          6.2334790163        1.8490491137        1.9102755271
 C          7.5857063362        2.1684200102        2.1360335498
 C          8.6178150499        1.5589871123        1.4630154595
 C          8.3515375892        0.5637216484        0.4953922068
 C          9.2773356345       -0.1607843919       -0.2895381140
 C          8.8387340042       -1.0990814893       -1.1935085181
 C          7.4757759729       -1.3901193682       -1.3909026151
 C          6.5508472102       -0.7041845487       -0.6444508211
 C          7.0038384566        0.2599176839        0.2862666367
 C         -2.0826309112       -1.5536124828       -0.3750392028
 C         -3.4408713912       -1.3489555608       -0.2659327008
 C         -6.9236622191        1.9512604222        0.3147618646
 C         -7.4627267973        3.1449628989       -0.1245792220
 H         -7.3735945842        4.7081513541       -1.5867056978
 H         -5.5017920249        3.6716958786       -2.8203210669
 H         -4.5478281976        1.5387433840       -2.0571021798
 H         -7.7169960953       -0.4496585173       -0.8818013233
 H         -9.2321574773       -2.1824763141       -0.0167863865
 H         -8.5559487852       -3.5757259252        1.9070989223
 H         -6.3541661684       -3.2128006771        2.9646567968
 H         -4.8439166158       -1.4692782443        2.1116109778
 H         -3.4243505133        1.9719256709        0.3663439244
 H         -1.0179916866        1.6062000144        0.1510995497
 H          0.0577958739       -2.2038351830       -1.9504400886
 H          0.9102442947        0.7338573295        1.0736498718
 H          5.4543511723        2.3533278283        2.4606180992
 H          7.8145807061        2.9271919585        2.8706015959
 H          9.6408421234        1.8389826006        1.6693245261
 H         10.3347468137        0.0291885048       -0.1737364717
 H          9.5660283295       -1.6397619835       -1.7820466869
 H          7.1726436167       -2.1331656560       -2.1117940431
 H         -1.7147212695       -2.5512121770       -0.5623204134
 H         -4.1219610715       -2.1776273140       -0.3897140372
 H         -7.3166669741        1.4661121464        1.1961843781
 H         -8.2808714340        3.5916294729        0.4206964987
  61
  -97.8728118000000       1.364682987681273E-002 !
 C         -6.1301471087        4.1755249684       -0.1185707934
 C         -4.9226114496        3.7080940234       -0.6110814094
 C         -4.6212579846        2.3613076100       -0.5591112156
 C         -5.5264020742        1.4600605952        0.0004040297
 N         -5.2240897833        0.0908673463        0.0636655143
 C         -6.2111987698       -0.8449384302       -0.2654890316
 C         -7.1468430138       -0.5612574290       -1.2601176583
 C         -8.1226304733       -1.4843201536       -1.5814156178
 C         -8.1785784331       -2.7029454582       -0.9249875397
 C         -7.2507059024       -2.9900768176        0.0629130233
 C         -6.2752957343       -2.0703463578        0.3967881356
 C         -3.9154841856       -0.3035271750        0.3282834859
 C         -3.1210933552        0.4527159663        1.1950081910
 C         -1.7874946684        0.1560983676        1.3608315762
 C         -1.2048837769       -0.9215511490        0.6928332681
 C          0.2424641495       -1.1290133042        0.7220600729
 C          0.8240899827       -2.4190862508        0.7231586156
 N          2.0999049748       -2.6593455172        0.6177265552
 C          2.9449281579       -1.6236414343        0.4898169916
 N          4.2502815626       -1.9163417546        0.2842889999
 C          5.0354269083       -0.8884831758        0.1286579946
 C          4.5646998809        0.4835041500        0.2000660545
 N          3.3168050497        0.7888603219        0.4085490692
 C          2.4796676032       -0.2729214524        0.5398924644
 C          1.1024371485       -0.0509969058        0.6635564847
 C          5.6965286975        1.3649271231       -0.0401359637
 C          5.8780852952        2.7230025731       -0.1132074894
 C          7.1657623852        3.2071608784       -0.4103414834
 C          8.2399713986        2.3784071614       -0.6315978093
 C          8.0873108071        0.9747933281       -0.5636443946
 C          9.0680912944       -0.0214339827       -0.7720711213
 C          8.7381965854       -1.3525176352       -0.6757681808
 C          7.4373897325       -1.7974971681       -0.3729599965
 C          6.4607557046       -0.8561052430       -0.1652099125
 C          6.8033718568        0.5133281502       -0.2623797941
 C         -2.0221042592       -1.7298617941       -0.0969275859
 C         -3.3530726386       -1.4246699620       -0.2855318870
 C         -6.7409389956        1.9345006216        0.4923290255
 C         -7.0372703324        3.2826574710        0.4280305192
 H         -6.3627943772        5.2284540397       -0.1625772193
 H         -4.2128053463        4.3951329002       -1.0476280664
 H         -3.6842914050        1.9969863038       -0.9539764583
 H         -7.0978953755        0.3837854956       -1.7808775134
 H         -8.8384901478       -1.2528619786       -2.3562906674
 H         -8.9397949944       -3.4235684173       -1.1818043920
 H         -7.2903910725       -3.9357208800        0.5831252224
 H         -5.5585448819       -2.2917661100        1.1739507414
 H         -3.5578622354        1.2912807604        1.7165713832
 H         -1.1865107419        0.7593923213        2.0248538965
 H          0.1934911771       -3.2936004197        0.8253577645
 H          0.7413927792        0.9665280782        0.6533678337
 H          5.0599417712        3.4079112992        0.0473256254
 H          7.3074339324        4.2768399156       -0.4690008948
 H          9.2093551443        2.7966652219       -0.8615767945
 H         10.0801605313        0.2717936790       -1.0113990126
 H          9.5052528508       -2.0953298481       -0.8415325253
 H          7.2198043885       -2.8522675289       -0.3112192261
 H         -1.5932082013       -2.5729589137       -0.6178304636
 H         -3.9573768755       -2.0324132789       -0.9421126205
 H         -7.4457540962        1.2391114542        0.9240575667
 H         -7.9800157718        3.6392480072        0.8155805342
