86
 energy: -123.018360258448 gnorm: 0.000032435394 xtb: 6.7.1 (edcfbbe)
C            6.08603122076943       -5.27430452126072        1.00080261335504
C            6.10740857477487       -4.21295021953438       -0.09306364004721
C            4.87160424379726       -3.31189506708926       -0.08262995981729
C            3.59101391416672       -4.05610009094220       -0.46064594840719
C            2.38038554420184       -3.13035400351942       -0.62488585925278
C            1.27218587698139       -3.77663188333548       -1.47072790954128
C            0.85313031059606       -5.17284193194333       -1.02200434087136
C            1.84448387722906       -2.67034630377857        0.74371315179758
N            0.96895479117945       -1.53559898703285        0.62647235778308
C            1.39409675145608       -0.25106716190110        0.38826108094868
C            2.68491632331750        0.25373136823184        0.29181206164730
C            2.83946192097663        1.60280173533817        0.05116419238970
C            1.73464905193524        2.45418887410918       -0.07843572324878
N            1.94557723403598        3.82184454230726       -0.32061218377439
C            2.76422362826179        4.65506303139886        0.41209404616643
C            3.50841913784401        4.38430530943901        1.55186666790254
C            4.23550790229738        5.41861772632607        2.10833746450174
C            4.22242826432767        6.69752091122989        1.55522977369401
C            3.46678971097449        6.97861155633172        0.43480987278761
C            2.72678697586552        5.95543972714095       -0.14314031150082
C            1.83880674715896        5.89132318310259       -1.26930298010943
C            1.41310109129421        6.82391166196117       -2.20620654214412
C            0.54479936926035        6.41586438356008       -3.19855227281416
C            0.11069495955881        5.09378443001953       -3.27191099782428
C            0.51964869394890        4.14778250173564       -2.35211782887232
C            1.37689556478324        4.55640909169709       -1.34014161628053
C            0.44377320906829        1.95921968361425        0.02505837875547
C            0.27236434588581        0.60133921038005        0.25043201607753
C           -0.88483511389142       -0.23018708231094        0.40813544774856
C           -2.24729464036146        0.02681607533809        0.36768324218516
C           -3.12584261961852       -1.02508912608112        0.57499525913804
N           -4.51234271065903       -0.80023372803636        0.55360613185014
C           -5.43323102132560       -1.50759589501436       -0.18983016520098
C           -5.23119586658824       -2.53016172545165       -1.10623312723965
C           -6.34018318635325       -3.05924821094946       -1.73735295670471
C           -7.62320727234154       -2.58313882639906       -1.47497807199954
C           -7.82854262512829       -1.55135916533594       -0.58131373148952
C           -6.72938680556946       -1.00243502676402        0.06602458739657
C           -6.57058486698348        0.06212020687891        1.01593880976213
C           -7.46095598671645        0.91735252478877        1.65198878387878
C           -6.96442579089308        1.84163000489443        2.54883177124375
C           -5.60027400408438        1.91161525263429        2.82445861380643
C           -4.69476577193545        1.07236634541861        2.20488332074963
C           -5.18552132806727        0.15430996800781        1.28713778235879
C           -2.64494385633760       -2.31817541223249        0.81624610347970
C           -1.29392506986151       -2.59149727004373        0.84218108092698
C           -0.40472457644944       -1.54400513252115        0.63535843722279
H            5.27543931436033       -5.98141109377167        0.84565178924493
H            5.95945794453288       -4.81227924943169        1.97774381497879
H            7.02117055885871       -5.82936841998125        1.00442593324333
H            6.99322700000000       -3.58764712933821        0.04112786190085
H            6.19170496223842       -4.69794327613563       -1.06813726186335
H            4.77281243462332       -2.86872492708038        0.91082751325722
H            5.02902542820609       -2.49897296251069       -0.79653555850668
H            3.76442171080727       -4.56962070445934       -1.40889561533606
H            3.36717053930723       -4.80941147841178        0.29504607099548
H            2.70685610813364       -2.23130832374691       -1.16128383424834
H            0.40008402644864       -3.11859303453865       -1.45988090084446
H            1.61930122519999       -3.83653647594793       -2.50480639913167
H            1.66194942167518       -5.88607989706891       -1.15595077627506
H            0.00527407723993       -5.50859980329649       -1.61457127462201
H            0.55705783769866       -5.18718765782444        0.02368908732567
H            2.68125000515303       -2.38879149518915        1.38929319777930
H            1.30339788769298       -3.48133175851460        1.23265412932205
H            3.55002624479263       -0.38311163392210        0.39203082011213
H            3.82983201949019        2.01991379933049       -0.05245446172344
H            3.51102947140893        3.40032637932065        1.99658264951612
H            4.82484858973508        5.23296117163344        2.99446872800709
H            4.80681199367155        7.47853451835166        2.01875213350752
H            3.44505295013005        7.97306734656373        0.01488194195415
H            1.75992696650180        7.84520817950797       -2.15704568650963
H            0.19976853539846        7.12584443014708       -3.93557898728101
H           -0.55882205992727        4.80145652129708       -4.06764152480017
H            0.19008256958476        3.12212915192656       -2.42552433935539
H           -0.40494999051468        2.62046999933925       -0.05744810182279
H           -2.61843958601030        1.02071154108042        0.17073340796259
H           -4.23887631915622       -2.89400342878817       -1.32754077992190
H           -6.20978351449747       -3.85782454459872       -2.45310742613816
H           -8.46479186622148       -3.02545654686915       -1.98726305054294
H           -8.82120184043177       -1.17270449042665       -0.38897867571178
H           -8.51939960918914        0.85402867628723        1.44837955483360
H           -7.63953731736284        2.51752216962515        3.05254498895222
H           -5.24309497800998        2.63689929447808        3.54088149917399
H           -3.64125025864068        1.12336797119957        2.43604449955043
H           -3.35586448772616       -3.11056345747596        0.99560158634034
H           -0.95291911798140       -3.59772189516513        1.02784256424834
