86
 energy: -123.018360258448 gnorm: 0.000032435376 xtb: 6.7.1 (edcfbbe)
C            6.08603122046811       -5.27430452198279        1.00080261230378
C            6.10740857472998       -4.21295021869500       -0.09306363957957
C            4.87160424355179       -3.31189506651850       -0.08262995863732
C            3.59101391424901       -4.05610009016378       -0.46064594876722
C            2.38038554409170       -3.13035400282974       -0.62488585891189
C            1.27218587694124       -3.77663188264326       -1.47072790931530
C            0.85313031036196       -5.17284193122882       -1.02200434077256
C            1.84448387743632       -2.67034630379183        0.74371315252075
N            0.96895479123046       -1.53559898705793        0.62647235926382
C            1.39409675146033       -0.25106716189614        0.38826108237286
C            2.68491632331590        0.25373136840663        0.29181206413918
C            2.83946192107936        1.60280173539713        0.05116419426358
C            1.73464905210019        2.45418887399582       -0.07843572305709
N            1.94557723444204        3.82184454202608       -0.32061218432561
C            2.76422362847264        4.65506303133870        0.41209404568068
C            3.50841913845585        4.38430530958131        1.55186666720543
C            4.23550790303064        5.41861772656531        2.10833746347794
C            4.22242826475823        6.69752091144569        1.55522977263542
C            3.46678971087513        6.97861155643583        0.43480987205273
C            2.72678697571162        5.95543972710589       -0.14314031191600
C            1.83880674683548        5.89132318295426       -1.26930298037089
C            1.41310109056576        6.82391166192602       -2.20620654211283
C            0.54479936881953        6.41586438340802       -3.19855227298969
C            0.11069495997277        5.09378442961656       -3.27191099851987
C            0.51964869467113        4.14778250127574       -2.35211782974637
C            1.37689556497130        4.55640909137828       -1.34014161676046
C            0.44377320920203        1.95921968334937        0.02505837821184
C            0.27236434591069        0.60133921024279        0.25043201636257
C           -0.88483511390185       -0.23018708256135        0.40813544770204
C           -2.24729464041845        0.02681607482771        0.36768324179017
C           -3.12584261967087       -1.02508912663632        0.57499525872631
N           -4.51234271073348       -0.80023372849916        0.55360613126002
C           -5.43323102161288       -1.50759589499674       -0.18983016598253
C           -5.23119586737633       -2.53016172539588       -1.10623312816247
C           -6.34018318737985       -3.05924821033942       -1.73735295770840
C           -7.62320727317424       -2.58313882524292       -1.47497807305512
C           -7.82854262550257       -1.55135916423229       -0.58131373237006
C           -6.72938680569871       -1.00243502632345        0.06602458665768
C           -6.57058486684679        0.06212020674992        1.01593880959780
C           -7.46095598639536        0.91735252459191        1.65198878406828
C           -6.96442579038383        1.84163000386564        2.54883177219697
C           -5.60027400360091        1.91161525080078        2.82445861510227
C           -4.69476577163244        1.07236634376441        2.20488332153146
C           -5.18552132792303        0.15430996724393        1.28713778235874
C           -2.64494385632937       -2.31817541265118        0.81624610350207
C           -1.29392506979678       -2.59149727022969        0.84218108154275
C           -0.40472457641797       -1.54400513269564        0.63535843772926
H            5.27543931411934       -5.98141109423844        0.84565178686889
H            5.95945794398769       -4.81227925170259        1.97774381463329
H            7.02117055851318       -5.82936842077105        1.00442593151414
H            6.99322699968232       -3.58764712845431        0.04112786391876
H            6.19170496294017       -4.69794327377497       -1.06813726208475
H            4.77281243381868       -2.86872492805794        0.91082751507004
H            5.02902542816137       -2.49897296081141       -0.79653555602678
H            3.76442171141817       -4.56962070210241       -1.40889561647024
H            3.36717053924809       -4.80941147892649        0.29504606932623
H            2.70685610768519       -2.23130832271990       -1.16128383355623
H            0.40008402648246       -3.11859303374349       -1.45988090094991
H            1.61930122541028       -3.83653647547064       -2.50480639880257
H            1.66194942164800       -5.88607989633171       -1.15595077512850
H            0.00527407757582       -5.50859980281861       -1.61457127520877
H            0.55705783641287       -5.18718765677878        0.02368908710485
H            2.68125000550406       -2.38879149533933        1.38929319837422
H            1.30339788819228       -3.48133175885577        1.23265412979478
H            3.55002624480897       -0.38311163350727        0.39203082389090
H            3.82983201970187        2.01991379930307       -0.05245445912243
H            3.51102947239677        3.40032637951434        1.99658264891798
H            4.82484859091551        5.23296117189822        2.99446872669068
H            4.80681199421897        7.47853451865425        2.01875213215016
H            3.44505294964435        7.97306734669493        0.01488194129492
H            1.75992696529829        7.84520817962272       -2.15704568616544
H            0.19976853472922        7.12584443006234       -3.93557898729263
H           -0.55882205905062        4.80145652072965       -4.06764152582382
H            0.19008257087871        3.12212915131000       -2.42552434065187
H           -0.40494999038023        2.62046999893768       -0.05744810351644
H           -2.61843958622712        1.02071154048022        0.17073340739050
H           -4.23887632012730       -2.89400342919567       -1.32754078089107
H           -6.20978351585690       -3.85782454393577       -2.45310742726768
H           -8.46479186728422       -3.02545654526161       -1.98726305161743
H           -8.82120184065424       -1.17270448902628       -0.38897867638957
H           -8.51939960882852        0.85402867675497        1.44837955462204
H           -7.63953731667930        2.51752216856271        3.05254499019083
H           -5.24309497739570        2.63689929182526        3.54088150122974
H           -3.64125025837198        1.12336796891890        2.43604450064221
H           -3.35586448763661       -3.11056345794989        0.99560158647235
H           -0.95291911781351       -3.59772189517541        1.02784256565857
