86
 energy: -122.921691282272 gnorm: 0.000205806992 xtb: 6.7.1 (edcfbbe)
C            2.25339124643681       -2.79015917121310       -2.12149691091331
C            1.05916470755381       -3.65100625211906       -2.51681673436318
C            0.04371308551591       -3.82088686217049       -1.38607959727740
C            0.55558644706034       -4.71542635972204       -0.25675399689362
C           -0.44802995824050       -4.85940873452945        0.89851960238964
C           -0.45960484911553       -6.28196464785427        1.47276625908900
C           -1.17609035305487       -7.27366577595208        0.56377322979863
C           -0.13580808900464       -3.86673127877294        2.03806314511832
N           -0.09580125888495       -2.50529926038564        1.59452133905942
C            1.03445712038538       -1.78161594734051        1.30343909203278
C            2.36483861094555       -2.10446719557058        1.48096221563870
C            3.33407107464216       -1.17826234232978        1.07245012336123
C            2.95744929964961        0.04890483982618        0.51916715924268
N            3.94356814988150        0.94808458423599        0.11861702387576
C            3.97155689326405        2.29803052239967        0.41507928194107
C            3.10480729241880        3.04764198511329        1.19493145991109
C            3.38630842419119        4.39492596075601        1.36301218097979
C            4.50904171763981        4.97762293542602        0.78339078919009
C            5.39533571570862        4.22827593137915        0.03065437575432
C            5.13203533327478        2.87666498025085       -0.15425188492852
C            5.82594283161312        1.81914569930192       -0.83202671315276
C            6.99191084145741        1.77026347548685       -1.58615852591901
C            7.36991983428044        0.56108417004863       -2.14159787715230
C            6.59470906934340       -0.58181451260166       -1.97131179252906
C            5.42769027624215       -0.55721685990094       -1.22294978993142
C            5.06081432033161        0.64362682114375       -0.63621809030711
C            1.61277894471130        0.39748436757906        0.35525303435888
C            0.63494161839442       -0.52565214778367        0.74850178430418
C           -0.77995475266208       -0.51666439217808        0.72717307575937
C           -1.73828849111963        0.41885423448889        0.31616986992191
C           -3.08996459167648        0.08292692440871        0.44710783388660
N           -4.05710967297105        1.00215287392255        0.04326669291570
C           -4.07292944522282        2.34634820989535        0.36545263326832
C           -3.21001805204411        3.06971024862561        1.17405852672839
C           -3.47693675906511        4.41691081957078        1.36318225678415
C           -4.58195105572151        5.02550350971177        0.77606421650137
C           -5.46490183727687        4.30227198287640       -0.00543944710303
C           -5.21602492293437        2.95113092915475       -0.21158473789791
C           -5.91258302932993        1.91582428073462       -0.92025027675315
C           -7.06745970006867        1.89668775639549       -1.69227844826722
C           -7.45380273491547        0.70309290139711       -2.27476249831815
C           -6.69711309755739       -0.45342241196895       -2.11334823629391
C           -5.54116466784711       -0.45812810099475       -1.34798831963295
C           -5.16607993297760        0.72679797114877       -0.73424443952027
C           -3.49328464296475       -1.14824476024305        0.97163098623830
C           -2.54398413170664       -2.08880039102585        1.39482970459126
C           -1.20837205183401       -1.76849894021379        1.26552134033157
H            2.90458988205720       -2.63132257963105       -2.97843287976644
H            2.83615050900629       -3.26487511090544       -1.33610856121224
H            1.91912937265434       -1.82049380311954       -1.75869625021555
H            0.55646298263499       -3.18130814551103       -3.36530668637446
H            1.40834307224182       -4.63387900235846       -2.84310951516883
H           -0.21727704418833       -2.83452852747484       -1.00118946075432
H           -0.86778667522317       -4.26575200500122       -1.79464053854160
H            0.77156891453048       -5.70010366046517       -0.67566017067288
H            1.49403797983637       -4.31666439550903        0.12844885849274
H           -1.45053629742123       -4.63212432653422        0.52121714625718
H            0.56846235358623       -6.61090172998492        1.64024839665171
H           -0.96415163556745       -6.27364613116628        2.44218993522002
H           -0.70793553840031       -7.31972702860745       -0.41608351459793
H           -2.21574025201267       -6.98283612899174        0.43044125255940
H           -1.15205599787836       -8.26974600208342        0.99920890014029
H            0.82942647266616       -4.11805486251638        2.48325976337771
H           -0.90414578283147       -3.95678718178945        2.81380401207258
H            2.67711897139595       -3.02825184985393        1.94382023079907
H            4.37835241543906       -1.39040147909484        1.23292913742033
H            2.24554652874953        2.59839771390308        1.66839875047907
H            2.72281662465792        5.00142977177906        1.96103025741220
H            4.69504121474337        6.03059974728524        0.93561274272320
H            6.27649876394372        4.67839266466034       -0.40052551739358
H            7.58315192027333        2.66032067126503       -1.73845850769526
H            8.27477561335821        0.50248571954461       -2.72844763198498
H            6.90419501651298       -1.50668251806910       -2.43467322356271
H            4.81956418272700       -1.44144919460517       -1.11582455640296
H            1.33990980240140        1.32399797975176       -0.12259998404263
H           -1.44562286861064        1.34772717607975       -0.14501509736736
H           -2.36489211101900        2.60020994874649        1.65330358698202
H           -2.81610456240651        5.00307796368050        1.98404801426327
H           -4.75689442251674        6.07776797577126        0.94540618134156
H           -6.33276244286995        4.77201646476543       -0.44267517720663
H           -7.64430440716149        2.79744820476759       -1.83676417841218
H           -8.35073423149191        0.66729419517912       -2.87544247046161
H           -7.01275205216606       -1.36559240846619       -2.59731770961874
H           -4.94787580369974       -1.35364174013808       -1.24661365779621
H           -4.54347675549689       -1.35209664504621        1.10165999499692
H           -2.87036392435172       -3.01856700967183        1.83364043924805
