  86
       -122.91948972
 C          2.3171459730       -2.7535646362       -2.1363707190
 C          1.1105048022       -3.5940450152       -2.5377098911
 C          0.1015491087       -3.7723003711       -1.4026014462
 C          0.6141616757       -4.6864863421       -0.2894866584
 C         -0.3878773106       -4.8527215408        0.8640654754
 C         -0.3816635015       -6.2805390319        1.4254230977
 C         -1.0861195048       -7.2737045344        0.5087925787
 C         -0.0883261971       -3.8679065515        2.0138284979
 N         -0.0643939657       -2.5012135226        1.5854921955
 C         -1.1851659995       -1.7768375490        1.2567264941
 C         -2.5173849006       -2.1172863887        1.3743488195
 C         -3.4754405184       -1.1909435463        0.9475509586
 C         -3.0872775889        0.0496101898        0.4312538416
 N         -4.0666311102        0.9511976313        0.0174926319
 C         -5.1545052913        0.6558240061       -0.7821297376
 C         -5.4882399407       -0.5325339399       -1.4120138728
 C         -6.6293761651       -0.5493193437       -2.2008541821
 C         -7.4101403249        0.5902952245       -2.3668449213
 C         -7.0653496204        1.7880227943       -1.7662954067
 C         -5.9256671758        1.8290584068       -0.9715915248
 C         -5.2668700990        2.8738680955       -0.2425409344
 C         -5.5506656363        4.2175766590       -0.0286695507
 C         -4.6975021837        4.9540201779        0.7738209398
 C         -3.5873749949        4.3674939394        1.3734380846
 C         -3.2857275424        3.0276634851        1.1771349306
 C         -4.1190037636        2.2918152194        0.3496801496
 C         -1.7407245281        0.4075091348        0.3177332009
 C         -0.7730989972       -0.5151186952        0.7301427074
 C          0.6440546844       -0.5053524473        0.7567082217
 C          1.6091231901        0.4320615380        0.3725925073
 C          2.9575993022        0.0994987837        0.5330025356
 N          3.9346973446        1.0107038035        0.1395482404
 C          3.9526607767        2.3583671837        0.4479752311
 C          3.0788722140        3.0947187029        1.2316576740
 C          3.3521077098        4.4429746017        1.4145593017
 C          4.4734171569        5.0369446835        0.8443289367
 C          5.3668982164        4.3004588702        0.0867458705
 C          5.1125309286        2.9485241683       -0.1123779009
 C          5.8152914003        1.9019242603       -0.7959009922
 C          6.9857930337        1.8653406071       -1.5448224322
 C          7.3731916006        0.6624028583       -2.1080458840
 C          6.6042082038       -0.4864430864       -1.9519764264
 C          5.4325834895       -0.4742923232       -1.2086060152
 C          5.0568641070        0.7192404631       -0.6137128712
 C          3.3476179349       -1.1286979604        1.0777328266
 C          2.3915722364       -2.0683513696        1.4774709841
 C          1.0567014783       -1.7608142621        1.3020935319
 H          1.9957560591       -1.7891362322       -1.7489485971
 H          2.9607109186       -2.5816893275       -2.9966687002
 H          2.9036555489       -3.2515444036       -1.3684047557
 H          0.6066346186       -3.1040465533       -3.3739399546
 H          1.4463357457       -4.5747201499       -2.8837852725
 H         -0.1491785040       -2.7893788484       -1.0033264984
 H         -0.8158564398       -4.2043093602       -1.8112638515
 H          0.8291015465       -5.6633597392       -0.7266253763
 H          1.5530081005       -4.2952182801        0.1022605986
 H         -1.3929666463       -4.6345224801        0.4883017616
 H          0.6504727656       -6.5981570454        1.5895881172
 H         -0.8858000950       -6.2868943906        2.3950949274
 H         -2.1281611581       -6.9922161321        0.3745523722
 H         -1.0534829764       -8.2718300371        0.9387888207
 H         -0.6151221571       -7.3099350869       -0.4700859518
 H          0.8795692027       -4.1121987230        2.4571185703
 H         -0.8557441062       -3.9757102742        2.7882860984
 H         -2.8324854815       -3.0549287677        1.8045155804
 H         -4.5239391602       -1.4119045624        1.0635326548
 H         -4.8752063419       -1.4141720536       -1.3059213153
 H         -6.9126777583       -1.4642630886       -2.6992543530
 H         -8.2931859814        0.5386570700       -2.9865325960
 H         -7.6613666708        2.6754638103       -1.9147934222
 H         -6.4220668833        4.6709654375       -0.4758889457
 H         -4.9003065372        6.0003127605        0.9492572177
 H         -2.9503138145        4.9637662302        2.0092454744
 H         -2.4371943305        2.5737750214        1.6654130091
 H         -1.4585602211        1.3451040743       -0.1325254397
 H          1.3248468364        1.3600125482       -0.0960278866
 H          2.2208050218        2.6362841197        1.6984454743
 H          2.6829980277        5.0394314791        2.0163405193
 H          4.6531943725        6.0894521985        1.0074563376
 H          6.2465671235        4.7602283738       -0.3370805132
 H          7.5732980334        2.7595297121       -1.6865581499
 H          8.2818821569        0.6138206532       -2.6899577924
 H          6.9211401761       -1.4057848833       -2.4210790251
 H          4.8290439997       -1.3629214438       -1.1124541414
 H          4.3946124411       -1.3293072196        1.2357521374
 H          2.7143497316       -2.9930293563        1.9311630384
