86
 energy: -123.021320462335 gnorm: 0.000105346817 xtb: 6.7.1 (edcfbbe)
C            2.21979636728970       -2.86228732992888       -2.14797547446025
C            1.01859865000064       -3.72572724437666       -2.51591896621544
C            0.01637507711352       -3.87751422658108       -1.37090954123650
C            0.53963493244822       -4.75538583183352       -0.23387108205916
C           -0.45013668566945       -4.87882981761896        0.93618664961217
C           -0.44871554152569       -6.28985125490873        1.53889873470697
C           -1.16999514903974       -7.30451333439632        0.65965996697746
C           -0.12991668527081       -3.86232095281725        2.04974793559169
N           -0.08888718630714       -2.50565686704807        1.58007180581283
C            1.03463990841155       -1.77731284493908        1.27297819127066
C            2.37865289535934       -2.08450639060484        1.44645193911235
C            3.31877604403645       -1.15465567749204        1.05614703549789
C            2.94517016201314        0.06901739022979        0.48636705948002
N            3.94118528486540        0.98022308358859        0.09860843984759
C            4.01635160354622        2.30285090430252        0.48221501808948
C            3.18512736361351        3.02714953035958        1.32498718503328
C            3.50344265882192        4.34993009196027        1.56379200535017
C            4.62422094033993        4.94433772467108        0.98739685881097
C            5.46558269032954        4.22383937026262        0.16382738678626
C            5.16696052815630        2.89188226022686       -0.09188649505600
C            5.80811715442273        1.86474878788846       -0.86322838115836
C            6.94860163207313        1.83313238997899       -1.65500813464942
C            7.27970987641033        0.65397348926932       -2.29167192159167
C            6.48256659257664       -0.48114151477551       -2.15799744490737
C            5.34407293057980       -0.47556997601259       -1.37578816238411
C            5.01811574234982        0.70089491264772       -0.71586006364997
C            1.60733942691711        0.38850894029285        0.31567215792936
C            0.65031936697098       -0.53079732146916        0.71964317533292
C           -0.78326518254300       -0.52214187483554        0.69907820965345
C           -1.72221701004425        0.40654071015443        0.27494498645127
C           -3.06644519554869        0.09649824949929        0.41192340064435
N           -4.04479854317355        1.02132127055849        0.01117443013598
C           -4.11073610786427        2.34270351126401        0.40136300113280
C           -3.28601497356343        3.05220678272699        1.26296369063791
C           -3.59245971169610        4.37742360966230        1.50371936572342
C           -4.69557585150790        4.98875214795449        0.91117212074553
C           -5.53119678240043        4.28296369396162        0.06928611772705
C           -5.24421556021296        2.94885255412044       -0.18862512248759
C           -5.88489624866634        1.93386725512293       -0.97620715681076
C           -7.01284960088608        1.92083111949452       -1.78615703196475
C           -7.34865919634215        0.74934666815165       -2.43442887942486
C           -6.56778177614162       -0.39622071054114       -2.29471989183361
C           -5.44159353619799       -0.40861121541374       -1.49492707724811
C           -5.11146433156240        0.75967366781667       -0.82243419718175
C           -3.46546979789565       -1.12979797892441        0.95910871185837
C           -2.54337283892251       -2.07074434464961        1.36651925279383
C           -1.19447317394256       -1.76512242037262        1.23802331090314
H            2.86014049155833       -2.71848187081104       -3.01554908708577
H            2.81199392073846       -3.32699496130424       -1.36343066061988
H            1.89296944842499       -1.88566354656171       -1.79645485503399
H            0.50687387665897       -3.26694463232272       -3.36496210674425
H            1.36182854686429       -4.71375587075664       -2.83223449664646
H           -0.24021860999586       -2.88507872502549       -0.99840253593253
H           -0.89982221568550       -4.32782909348929       -1.76249149610775
H            0.74734121191123       -5.74677955637602       -0.64064084388614
H            1.48386316110138       -4.35440311726680        0.13400330160548
H           -1.45757273780971       -4.66703503919137        0.56292292652276
H            0.58274506984821       -6.61031773900508        1.70189469561933
H           -0.94225398629761       -6.26310539417908        2.51368919220521
H           -0.71178487467172       -7.37038288373391       -0.32378231447277
H           -2.21234111931629       -7.02139088846152        0.53059966990011
H           -1.13702849828639       -8.29067908039698        1.11647149593008
H            0.83814543415398       -4.10385035191272        2.49429029920223
H           -0.88852519162754       -3.93490339572922        2.83713890740643
H            2.69608882593906       -3.01815413262359        1.88633835833614
H            4.36904892302343       -1.36062986439664        1.19740787944977
H            2.32317601639680        2.57022437283453        1.78787205871381
H            2.87089817353506        4.93620408616993        2.21420479717722
H            4.83745012426116        5.98200663418484        1.19738887510920
H            6.34125708600809        4.68086411193218       -0.27214753482911
H            7.55840554498110        2.71663827616508       -1.77039420088007
H            8.16360896967020        0.60782135636540       -2.91052196211835
H            6.75951175804611       -1.38502613335208       -2.68079038901769
H            4.72231408930134       -1.35381479761245       -1.29129370435616
H            1.32045162245054        1.32813583317560       -0.13078486724403
H           -1.41772561598870        1.34641723498804       -0.15896241794043
H           -2.43826377699415        2.58234155406367        1.73886571998256
H           -2.96435623989709        4.95226677798454        2.16846921654566
H           -4.89952377148060        6.02792770051701        1.12286096581722
H           -6.39356456864830        4.75288168181565       -0.37930385852411
H           -7.60960019613212        2.81256048807998       -1.90628453641248
H           -8.22332169833989        0.71736523360561       -3.06708920212783
H           -6.84771347581977       -1.29378560870337       -2.82672350378702
H           -4.83257400379139       -1.29581884846863       -1.40546938406938
H           -4.52080385125337       -1.32834706453829        1.07014809090265
H           -2.87257488962459       -3.00885083272567        1.78584949121170
