  86
       -123.02118608
 C         -2.4628529778       -2.5082057699        2.3005211549
 C         -1.3243677625       -3.3770317749        2.8227370961
 C         -0.2712735530       -3.6887149840        1.7585892806
 C         -0.7744992283       -4.6595467307        0.6902431545
 C          0.2717370631       -4.9537403039       -0.3972472024
 C          0.2321961123       -6.4206426183       -0.8454610261
 C          0.8435940427       -7.3660537412        0.1816310208
 C          0.0667295789       -4.0524246831       -1.6307681522
 N          0.0624995769       -2.6517462686       -1.3131882687
 C         -1.0419812544       -1.8512402206       -1.1514923447
 C         -2.3868151667       -2.1251819115       -1.3685858092
 C         -3.3050584904       -1.1239494796       -1.1346927536
 C         -2.9090017943        0.1398970894       -0.6795338333
 N         -3.8847217763        1.1243662908       -0.4512315251
 C         -3.8884244630        2.3941054505       -0.9895362019
 C         -2.9889212156        2.9842276400       -1.8660494008
 C         -3.2433854991        4.2785945488       -2.2759489692
 C         -4.3663190208        4.9748062387       -1.8331495360
 C         -5.2746007683        4.3864039342       -0.9763642716
 C         -5.0422195779        3.0848204724       -0.5513672722
 C         -5.7621159449        2.1773647490        0.2967540697
 C         -6.9432084364        2.2760628130        1.0205658900
 C         -7.3551149747        1.1899538668        1.7663582846
 C         -6.5987973273        0.0202878706        1.8074094745
 C         -5.4209599165       -0.1029304956        1.0963268575
 C         -5.0129268239        0.9781023176        0.3277299095
 C         -1.5694632204        0.4261710100       -0.4674578040
 C         -0.6327495659       -0.5672452642       -0.7135251488
 C          0.7968811278       -0.6123922410       -0.6092271428
 C          1.7549441572        0.3227756215       -0.2457367823
 C          3.0875108996       -0.0596089756       -0.2528968120
 N          4.0841849346        0.8567802848        0.1226243784
 C          4.1147024170        1.5757657425        1.2991033624
 C          3.2283085859        1.5601200953        2.3667122030
 C          3.5103139050        2.3690472796        3.4503721597
 C          4.6477357954        3.1734101929        3.4816948113
 C          5.5425158084        3.1795803735        2.4306268005
 C          5.2819170920        2.3738515042        1.3298744689
 C          5.9818146043        2.1185566066        0.1026454901
 C          7.1629955600        2.6026150807       -0.4442821595
 C          7.5514161736        2.1478823256       -1.6883592049
 C          6.7718568152        1.2321574608       -2.3923640398
 C          5.5930284051        0.7362795193       -1.8702095631
 C          5.2079548164        1.1735444916       -0.6106641628
 C          3.4579636263       -1.3575525312       -0.6273524926
 C          2.5180354244       -2.2944914754       -1.0014676378
 C          1.1799896942       -1.9219724361       -0.9878783618
 H         -3.1446857683       -2.2545501257        3.1093008211
 H         -3.0291251734       -3.0249681224        1.5296267336
 H         -2.0734790630       -1.5846318550        1.8767682043
 H         -0.8373813654       -2.8542288363        3.6490573076
 H         -1.7296568627       -4.3118294057        3.2175969645
 H          0.0502567554       -2.7525940299        1.3003688682
 H          0.6013137048       -4.1319702590        2.2460408817
 H         -1.0554406217       -5.5906562329        1.1856899894
 H         -1.6747161719       -4.2585145871        0.2251188842
 H          1.2660176224       -4.7471742712        0.0124055411
 H         -0.8029445224       -6.7086909944       -1.0420574282
 H          0.7846209881       -6.5229300116       -1.7827817561
 H          1.8883929465       -7.1161808674        0.3524814137
 H          0.7902234742       -8.3928361183       -0.1724201813
 H          0.3202925735       -7.3070293763        1.1325664660
 H         -0.8837245361       -4.3015600870       -2.1079768004
 H          0.8662840277       -4.2419426835       -2.3557040940
 H         -2.7204149059       -3.0887361628       -1.7238850795
 H         -4.3545203507       -1.3048187108       -1.3118852476
 H         -2.1243443236        2.4463983842       -2.2256726897
 H         -2.5576493113        4.7612729579       -2.9568106626
 H         -4.5279457309        5.9865029704       -2.1747168565
 H         -6.1515999394        4.9213809225       -0.6440727317
 H         -7.5225969182        3.1868290393        0.9993621240
 H         -8.2721710369        1.2452560174        2.3341600742
 H         -6.9400209527       -0.8078250369        2.4114435647
 H         -4.8319574909       -1.0059789523        1.1467441517
 H         -1.2667002384        1.3986708609       -0.1108276455
 H          1.4753419627        1.3288250942        0.0267301304
 H          2.3519972977        0.9291372132        2.3563113974
 H          2.8355526777        2.3759783552        4.2939237824
 H          4.8317337634        3.7928694554        4.3469481499
 H          6.4309772907        3.7924763319        2.4610648683
 H          7.7601009282        3.3226703528        0.0949509279
 H          8.4675778349        2.5103259267       -2.1305602839
 H          7.0949635510        0.9058851283       -3.3700527064
 H          4.9863724150        0.0391109115       -2.4288215766
 H          4.5041959997       -1.6230256836       -0.6081714456
 H          2.8247326687       -3.2880653054       -1.2895682706
