86
 energy: -122.921691083406 gnorm: 0.000081913511 xtb: 6.7.1 (edcfbbe)
C            2.31719569129379       -2.73591641020128       -2.13286605875170
C            1.13986288525836       -3.61317279710908       -2.54256403250510
C            0.11936061273992       -3.80741136174834       -1.42034621318797
C            0.63867070150893       -4.69943404360977       -0.29243926724854
C           -0.37056362700795       -4.86712226847615        0.85472815520837
C           -0.36386955401099       -6.29356300390905        1.41925652263163
C           -1.05754412564817       -7.29019375167975        0.49805646546999
C           -0.08170852885090       -3.87738341261831        2.00295075390130
N           -0.06044614993564       -2.51256229669683        1.56860515749587
C            1.06002246126345       -1.76874508349755        1.29056475705940
C            2.39418425253675       -2.07123016486912        1.47527092344446
C            3.35103806607619       -1.12653539713412        1.08020340124416
C            2.95833351066488        0.09841120305105        0.53318099488645
N            3.93241880176982        1.01646428310316        0.14615657417373
C            3.93666119205079        2.36429793492293        0.45310403702189
C            3.05281203274499        3.09375847380007        1.23290226363127
C            3.31158701886493        4.44393700006067        1.41351464939939
C            4.42876559311425        5.04900350612739        0.84623028060165
C            5.33178966878429        4.31997293950868        0.09340536340935
C            5.09128777654172        2.96593628442749       -0.10414923046601
C            5.80620390532063        1.92509794945663       -0.78596233891841
C            6.97693779569659        1.90088562097787       -1.53380160153492
C            7.37747268986595        0.70234572905637       -2.09647081868285
C            6.62001121822984       -0.45425833793557       -1.93937875168137
C            5.44861671572411       -0.45431369354451       -1.19758551222122
C            5.05901453179845        0.73592112069523       -0.60390863701469
C            1.60943613561247        0.42629869780574        0.36211913022959
C            0.64408900730595       -0.51549316207779        0.74152775782514
C           -0.77053405310590       -0.52928628825701        0.70988792578300
C           -1.74083424161860        0.39348446137090        0.29820965481122
C           -3.08778552232521        0.03495115686282        0.41716342460730
N           -4.06670284489201        0.94136098091639        0.01256027469040
C           -4.10687134515007        2.28262479336689        0.34452661412076
C           -3.26159096436121        3.01393388073009        1.16452891897045
C           -3.55231220765174        4.35497391786668        1.36232722797689
C           -4.66348444850206        4.94959192326346        0.77249048844522
C           -5.52868607989063        4.21800922628261       -0.02100315799882
C           -5.25573980309282        2.87287000221036       -0.23611931998247
C           -5.93000469809119        1.83165942586831       -0.95760121546436
C           -7.07864496710637        1.79933218233727       -1.73853995854478
C           -7.44100647282820        0.60389707658027       -2.33255792732876
C           -6.66674801182720       -0.54133112495484       -2.17375655403663
C           -5.51649650800181       -0.53273460970144       -1.39987516636030
C           -5.16538767881539        0.65367281614047       -0.77489832201549
C           -3.47492164612806       -1.20601092252902        0.93053414702552
C           -2.51360244195602       -2.13409743965903        1.35427611937423
C           -1.18246096993186       -1.79151677222580        1.23665583670436
H            2.97129509435897       -2.55994817153936       -2.98422213395556
H            2.90255482964803       -3.20696568659419       -1.34721250418162
H            1.96464624200393       -1.77465079527269       -1.76508551957565
H            0.63551002732057       -3.14575831715049       -3.39132877557223
H            1.50723814843765       -4.58794545166548       -2.87314928590135
H           -0.16167564625046       -2.82805997634531       -1.03161822691158
H           -0.78121364414502       -4.26572090036657       -1.83820384378028
H            0.87476439388135       -5.67783717987893       -0.71516413946432
H            1.56725884181568       -4.28661323175376        0.10172436447765
H           -1.37389043042459       -4.65295212692793        0.47197660308655
H            0.66799655563881       -6.60732462471336        1.59235461625312
H           -0.87578273437022       -6.29992403905355        2.38482104231300
H           -0.58195789042474       -7.32120584760740       -0.47880479716543
H           -2.10089717111259       -7.01550400503245        0.35959399558546
H           -1.02005770888859       -8.28895977682871        0.92634031856087
H            0.88444074392728       -4.11631371384943        2.45294920544263
H           -0.85362199681229       -3.98479962057346        2.77291829204258
H            2.71822750209035       -2.99308320489932        1.93388476662094
H            4.39748778312884       -1.32286840682927        1.24650946472947
H            2.19770633325551        2.62708195011736        1.69693911354352
H            2.63446591479073        5.03502042908920        2.01171723294173
H            4.59700292828908        6.10351977464230        1.00817953222254
H            6.20844412376839        4.78755824721169       -0.32825446719148
H            7.55461152903702        2.80148452156092       -1.67585219640964
H            8.28637659653689        0.66296273385537       -2.67864779713755
H            6.94708832632527       -1.37039173046271       -2.40797907694962
H            4.85419259031116       -1.34899637159253       -1.10072912287567
H            1.32485832437240        1.35180272275575       -0.11086473775005
H           -1.45991016558346        1.33010160189416       -0.15454758312753
H           -2.41198599401500        2.55479882256698        1.64588174758735
H           -2.90553575317570        4.94720260093615        1.99218627743463
H           -4.85729843754286        5.99735733383039        0.94900451113017
H           -6.40129213637750        4.67668192581710       -0.46050958166326
H           -7.66897967163225        2.69160212340375       -1.88111463525782
H           -8.33258315123182        0.55794863353651       -2.94044184785446
H           -6.96393450426206       -1.45499916675208       -2.66650285636235
H           -4.90939553190567       -1.41914569687426       -1.30030715777307
H           -4.52258967286562       -1.42760025163999        1.05155696488200
H           -2.82809307312281       -3.07194728219232        1.78448927110301
