112
 energy: -169.669876101718 gnorm: 0.000038295672 xtb: 6.7.1 (edcfbbe)
C          -12.75720909897470        0.59637540557310       -0.93507225165199
C          -12.39776775496857        1.65949141580606       -0.12204690094614
C          -11.09819633662495        1.78816111312693        0.32861999078269
C          -10.13074432333754        0.85160219130690       -0.03714185724168
N           -8.81307693126492        0.98151007846373        0.41692743604587
C           -8.23535786701158        2.25315234027373        0.52392508682981
C           -8.49411122783084        3.23112052673669       -0.43655262796756
C           -7.92708738980089        4.48580859257127       -0.32195371372189
C           -7.08975747042604        4.78336813361978        0.74137799332205
C           -6.82789697452344        3.81487624639350        1.69714877777910
C           -7.39781150242706        2.56058886864620        1.59584185620620
C           -8.07036132806622       -0.15685098981318        0.74912549088938
C           -8.68630049812180       -1.24219045337104        1.37583669135485
C           -7.94954076262031       -2.37004695292138        1.68547656804622
C           -6.60189903721975       -2.43679149201614        1.38208554733288
C           -5.96681196549567       -1.35671747907387        0.76526583590932
C           -4.53442728056624       -1.42279459790247        0.44056517403310
C           -3.62163303347220       -0.53921665479420        1.07265046962339
C           -4.05160791316901        0.36681724612322        2.05965315502863
C           -3.16123145680691        1.16111289111162        2.75075131907781
C           -1.80002004471832        1.04629059602431        2.50220319642899
C           -1.34594936140957        0.15438077440685        1.54988911985125
C           -2.22699740576246       -0.62454538603979        0.78594948727950
C           -1.74866849035207       -1.58401769460649       -0.16530680225842
C           -0.33920308977853       -1.72117655261753       -0.43280308932826
C            0.26744494077648       -2.98065834835488       -0.25701271860115
C            1.61986426837286       -3.14947248669971       -0.35580765851513
C            2.46686783984811       -2.07021134772914       -0.69582665651160
C            3.86166706544683       -2.21993026338747       -0.81006606010279
C            4.66411808893367       -1.16703519934575       -1.15169687644115
C            4.12358649000873        0.11364048955295       -1.41704950908251
C            4.92954165842484        1.21691456990071       -1.79147159620520
C            6.39727922691182        1.15132921526880       -1.80417392495976
C            7.10385859936869        1.57279203276297       -2.93170318269713
C            8.48671138565009        1.56026458498303       -2.93386666783138
C            9.18847588044194        1.14176365348551       -1.81904206269728
C            8.49827284137054        0.73011670722562       -0.67826334133984
N            9.19858003688630        0.31955888704562        0.46410218271552
C           10.35781109556629        0.99736245857062        0.85398905389116
C           10.46005327237713        2.37911882837430        0.68672042593399
C           11.61092756130391        3.04335547119050        1.06445228026484
C           12.67264818684324        2.34868513245353        1.62166488672095
C           12.57482468568287        0.97723258391968        1.79471345168871
C           11.43167214145598        0.30250867898277        1.41220981773015
C            8.73488574289185       -0.77218163308635        1.20728384145698
C            8.19461719733525       -1.88487553153331        0.56231669913989
C            7.73934968773908       -2.96271531974897        1.29660911791688
C            7.81869614460531       -2.95311444763877        2.67987993086832
C            8.35747931460080       -1.85172272842831        3.32572786944116
C            8.80999576117713       -0.76646213569787        2.60033607967599
C            7.10593678965766        0.73571278143756       -0.68144723372809
C            4.32051011642821        2.41888750621720       -2.15105924071184
C            2.95505727964811        2.57659577201796       -2.11090013238495
C            2.12352925569978        1.51822975157941       -1.70303479825910
C            0.71733071687046        1.64351800253419       -1.65758296282893
C           -0.07288611751972        0.60911343536377       -1.24455824204304
C            0.48288270456547       -0.62575569199425       -0.84436377389062
C            1.88507386522780       -0.80428145905021       -0.95956823028253
C            2.71301376927616        0.27728625155406       -1.35495219520508
C           -2.68001873835838       -2.46507930616320       -0.80254866494486
C           -2.27883967292193       -3.33365459357213       -1.82804190426724
C           -3.17759525264750       -4.16708560662377       -2.46906614499236
C           -4.52337960819392       -4.12316165556460       -2.13313903273353
C           -4.96281977507174       -3.22944049557089       -1.17755675014437
C           -4.06945654146734       -2.38788681047312       -0.48903713097683
C           -6.71061698544227       -0.22299189847143        0.45463771812853
C          -10.49709379715412       -0.21400292485102       -0.85989825872114
C          -11.80116047025555       -0.33843701664280       -1.29880187753446
H          -13.77459514819764        0.49714589724548       -1.28254248243636
H          -13.13709562629505        2.39058653716869        0.17134041343947
H          -10.82299552143605        2.61252760658714        0.97037051742484
H           -9.13987535776550        2.99831837005906       -1.27083776558808
H           -8.13392843042203        5.23385583888055       -1.07357771813485
H           -6.64570590713125        5.76389313233233        0.82582160211349
H           -6.18330625061307        4.04208469347533        2.53345274425435
H           -7.20668983873357        1.81155876558486        2.35041840654766
H           -9.73722297864418       -1.19203064431022        1.61906148166043
H           -8.43183257676226       -3.20313348828508        2.17604790336512
H           -6.02702743562257       -3.31468304675627        1.63745235910366
H           -5.10382119403876        0.42225795837042        2.29022858651170
H           -3.52058599044344        1.85078877459299        3.50032398744115
H           -1.09130175925709        1.64049039675500        3.06026095073251
H           -0.28271514223463        0.05189612071783        1.39607205040123
H           -0.35509787913956       -3.80980607576798        0.04937846745847
H            2.06434019800398       -4.11285179154048       -0.14976768517733
H            4.29152247341054       -3.19529659660383       -0.63089761136096
H            5.72856624347224       -1.31320410173234       -1.24838950581323
H            6.56212893113702        1.88996328555206       -3.81042652579173
H            9.02611262084369        1.87387356889081       -3.81591248312935
H           10.26838621360022        1.13027933924745       -1.82269376429576
H            9.63048742566414        2.92603104427594        0.26270229784069
H           11.67485259809211        4.11364129133918        0.93126256456607
H           13.56925240523273        2.87188168857150        1.91834433247340
H           13.39896489698740        0.42552377469548        2.22326056926450
H           11.36414578850170       -0.76839381833378        1.53774222558503
H            8.14689152482892       -1.89983924885550       -0.51703345324738
H            7.33057878461215       -3.82159369790257        0.78459825204801
H            7.46471410265089       -3.79838484428978        3.25072590107616
H            8.41911964153485       -1.83395942339274        4.40418179284004
H            9.22321623208348        0.09434232828403        3.10595056566365
H            6.57242661797204        0.44214049344292        0.21139135710621
H            4.94712337468199        3.25026114353078       -2.44290755858889
H            2.50591311231829        3.52010498423135       -2.38603994183429
H            0.27178543952680        2.58047804422545       -1.96088288472655
H           -1.14636548752064        0.72684926987592       -1.22280111922677
H           -1.24464379894309       -3.34350494617006       -2.13683991390900
H           -2.83008539816021       -4.83682897176207       -3.24209059828200
H           -5.23140523640724       -4.76575231921825       -2.63608464201905
H           -6.01782081549479       -3.16105220417879       -0.96045619888746
H           -6.23071769181220        0.60898750881199       -0.04084075370276
H           -9.75187785847334       -0.93849103542766       -1.15476891178270
H          -12.07046070445159       -1.16694144839218       -1.93776783808946
