112
 energy: -169.735186690065 gnorm: 0.000100657810 xtb: 6.7.1 (edcfbbe)
C           -7.37046626937384        2.71450068536389       -3.71125186408938
C           -7.47318576618109        1.34105352616645       -3.55909715237263
C           -7.94757171983230        0.80210757747609       -2.37902883058548
C           -8.31556030257627        1.63414142664595       -1.32172715335655
N           -8.78754320172619        1.08874631656627       -0.12172804115630
C           -9.81763076156116        1.72351387771129        0.58238243165830
C          -10.86728797965947        2.33939355564113       -0.09952186289864
C          -11.88043501527229        2.96580146955019        0.60044875773672
C          -11.87111066576561        2.98212821304795        1.98601016495534
C          -10.83283140969453        2.36884070834574        2.66854652509101
C           -9.81038697133126        1.74801605847336        1.97724626908331
C           -8.23052501755041       -0.09659869632421        0.37306297748510
C           -9.03573390378235       -1.05320343979018        0.99188160195773
C           -8.47566591456932       -2.21832829159306        1.48005090118742
C           -7.11679686574234       -2.45187006682315        1.35887977286865
C           -6.30193248164546       -1.50757429853515        0.73967782482347
C           -4.84666289261318       -1.74593429530827        0.61252924490630
C           -4.02916040766853       -1.68449095671559        1.75012675838857
C           -4.54924308350805       -1.35840978696593        3.03082576433333
C           -3.74420615709464       -1.30078093251279        4.12675113918182
C           -2.36298898762768       -1.55874548216571        4.01065515539135
C           -1.82182049450746       -1.86177184482734        2.79950840760276
C           -2.62641479532907       -1.93461379401994        1.63157583705454
C           -2.07399134065026       -2.22856318852782        0.37790551839094
C           -0.62270270188206       -2.50614791137228        0.26698629992006
C           -0.15253275091395       -3.78472988826667        0.54413797008033
C            1.19396729057885       -4.08076724768426        0.47230577827546
C            2.12173225949432       -3.09927495935525        0.11907563796126
C            3.52105382357018       -3.36072497228756        0.06467361901326
C            4.40496919630179       -2.39795494319942       -0.28592241276260
C            3.97475143346245       -1.08036041438552       -0.62667930228158
C            4.87336835875522       -0.06636907136404       -1.00407210710459
C            6.31452018746646       -0.32338129961496       -1.17673935243673
C            6.76814066205549       -1.30910431543728       -2.05184376166859
C            8.12628517131019       -1.51428394103656       -2.21867307839534
C            9.04594137559187       -0.74595084264204       -1.53012025543530
C            8.60748715223825        0.24955081799952       -0.65673344579601
N            9.52649335206722        1.04306622849746        0.04034052395528
C            9.26054451133522        2.40361932494368        0.23810168690280
C            8.64515867775869        3.15566143893372       -0.76292020106529
C            8.37653245729907        4.49590336637305       -0.56249031581491
C            8.72325486356593        5.11053496459111        0.63009564362955
C            9.34072514608853        4.37004697721118        1.62533885900488
C            9.60499493286741        3.02682997969964        1.43757142141880
C           10.71026991756570        0.48028842153849        0.53098547096328
C           11.90177297921448        1.20561324064045        0.50773050905997
C           13.06744137939123        0.64624777938805        0.99466519331116
C           13.06924061369989       -0.64274404310627        1.50332356910322
C           11.88940100998520       -1.36901853429157        1.52556116167914
C           10.71681579562027       -0.81512196611127        1.04896651614085
C            7.23916508081521        0.45127301413459       -0.48920631857968
C            4.39667143332555        1.22002645644186       -1.24031960978883
C            3.05304009730181        1.51723836034236       -1.15141842797520
C            2.12653459924690        0.52926004762280       -0.81338220586894
C            0.73018416381566        0.79962138697867       -0.72676602102974
C           -0.15390091636311       -0.16563977588157       -0.38545999031339
C            0.27947604086583       -1.49394693672012       -0.09777331676774
C            1.66361082033844       -1.79135997335391       -0.17539679111302
C            2.59019014095413       -0.78134833019455       -0.53917280049265
C           -2.88851682792475       -2.28046107953009       -0.76062322677799
C           -2.35510842163755       -2.57641970320735       -2.04297805486034
C           -3.15559575019988       -2.63944792672478       -3.14151591971170
C           -4.54347174314689       -2.42098359061744       -3.02244912573472
C           -5.09299403564182       -2.13498336063004       -1.81081976841960
C           -4.29318950646634       -2.04123948644668       -0.64139459787996
C           -6.86275296567692       -0.33571604305345        0.25205233116324
C           -8.20598032093262        3.01582724622328       -1.47898486808397
C           -7.74244849420822        3.54662235802105       -2.66751892514658
H           -7.00364886345442        3.13318722786294       -4.63643811803288
H           -7.19119765229289        0.68418408749616       -4.36909903881736
H           -8.04258169592944       -0.26821030215042       -2.26872832565837
H          -10.88268118395861        2.31981476584207       -1.17968349281468
H          -12.68831143212408        3.43675021828517        0.05920670173442
H          -12.66687768129691        3.46890501533412        2.52966910605149
H          -10.81358835905429        2.38142781853823        3.74878304392713
H           -8.99718530409568        1.27941154967083        2.51243939324378
H          -10.09743381095230       -0.87707140459093        1.08319406023945
H           -9.10779922595230       -2.95579872750395        1.95318255451241
H           -6.68169671736537       -3.36516910096954        1.73698073011548
H           -5.60554422092612       -1.15162404202263        3.11938144641994
H           -4.15627154998988       -1.05198869322975        5.09414867834957
H           -1.73846409984990       -1.50673282115782        4.89082836392892
H           -0.76195805005568       -2.04856566429467        2.70523859300172
H           -0.86085449131953       -4.55242830003667        0.82332477413245
H            1.54045025525062       -5.07993033849031        0.69542177036719
H            3.86349590360714       -4.35343615116955        0.32192930612772
H            5.46332750793219       -2.61142879456951       -0.30039073216637
H            6.05495431362903       -1.89664852425561       -2.61092820178936
H            8.47421298040157       -2.27476479954995       -2.90281861628240
H           10.10504076526723       -0.90522898830583       -1.66957527656082
H            8.38393513583647        2.68088907258093       -1.69777886589490
H            7.90134202667815        5.06689817551270       -1.34725577026582
H            8.51492935818285        6.15902641933487        0.78202639070589
H            9.61135717686336        4.83966834058299        2.56003709113344
H           10.07798737801135        2.44981964431240        2.21910070411450
H           11.90590389414298        2.20724203171582        0.10253806993374
H           13.98341356902934        1.21869035683591        0.96822627876326
H           13.98305016518321       -1.07734154550272        1.87995563661850
H           11.87917049606245       -2.37259134541669        1.92589021253116
H            9.79653915539764       -1.38048854388428        1.07697395282019
H            6.89370254886251        1.21093893207159        0.19746300531297
H            5.09922407064768        1.99259216133203       -1.51944192187263
H            2.70598443949703        2.52120427825554       -1.35079803977283
H            0.39260858162107        1.80423187795150       -0.94021317342006
H           -1.21040127158804        0.05154079673545       -0.32074706746433
H           -1.29240778533712       -2.75148884558719       -2.12850860213815
H           -2.73590855655288       -2.86376123655803       -4.11154248076733
H           -5.16653923064843       -2.48903316867036       -3.90257181648523
H           -6.15700485417378       -1.97877603961252       -1.71712199854023
H           -6.23041339846454        0.40308539911535       -0.21978139533981
H           -8.48494132332603        3.66713291431320       -0.66329288462924
H           -7.66230904691040        4.61876009986344       -2.77547318321416
