112
 energy: -169.669830553103 gnorm: 0.000072399096 xtb: 6.7.1 (edcfbbe)
C          -12.62315827722158        0.49531439786712       -1.44117331522112
C          -12.33915126408784        1.61540935318556       -0.67607995090492
C          -11.08467655846748        1.78635063027347       -0.12338926933028
C          -10.08614266401950        0.83543952809939       -0.33748582652607
N           -8.81320263403523        1.00653505796485        0.21735936675197
C           -8.24515249265313        2.28381553876160        0.29436635846917
C           -8.43056329415548        3.20682197297101       -0.73510798630334
C           -7.87295382650091        4.46785131186944       -0.64746633024026
C           -7.11836203200888        4.82691089202715        0.45798619145127
C           -6.92809504386274        3.91268792518645        1.48170510924159
C           -7.48819191284194        2.65221397395959        1.40652287787464
C           -8.09883548202611       -0.10485990563163        0.68156011051830
C           -8.75784457509812       -1.13284126655653        1.35832949829974
C           -8.04724982941157       -2.23262656373099        1.80195703024205
C           -6.68613388997827       -2.32917566784602        1.57722544722406
C           -6.00981781237003       -1.30811650009952        0.90547023596293
C           -4.56722785312970       -1.41217838975415        0.64517135599896
C           -3.67049905193210       -0.47529209469957        1.22142939112879
C           -4.12396671130100        0.51351664824385        2.11350986752930
C           -3.24919714968996        1.36600238873538        2.75452607925709
C           -1.88252887085806        1.23118214548896        2.55125525305796
C           -1.40569689097705        0.25941939857767        1.69222477099260
C           -2.26926793822120       -0.58456867458344        0.97949022555179
C           -1.76698092639739       -1.62295441927381        0.12985099654686
C           -0.35134134993037       -1.76692846899278       -0.10456088458718
C            0.26691665957173       -2.99454810110524        0.20289387960757
C            1.62058689159600       -3.16204825043106        0.11696154772936
C            2.45560696398077       -2.12082543148426       -0.34642633932362
C            3.85007404292131       -2.27608167152840       -0.46308074782255
C            4.64094138721631       -1.26570917325288       -0.93353411520630
C            4.08883691759991       -0.02439239326456       -1.33098125607743
C            4.88152209084144        1.02818152830865       -1.84953968138465
C            6.34832940586790        0.95191664355922       -1.91321912663298
C            7.00451232844336        1.21113820345474       -3.11716054281905
C            8.38584906817099        1.18263354136214       -3.17837944471052
C            9.13444102212678        0.91260229313153       -2.04848649172832
C            8.49521958491480        0.67103517513493       -0.83147653222678
N            9.24642035443742        0.42339186074993        0.32454755135221
C           10.43266224600565        1.12932210129301        0.55183969437818
C           10.54332575380636        2.46906756144926        0.17715706176075
C           11.71928625489492        3.15944096396856        0.39818757503001
C           12.79857785993908        2.53377873219832        1.00162140240955
C           12.69274187841399        1.20485155985268        1.38012554315071
C           11.52413134889648        0.50325733833898        1.15528951136743
C            8.80268439285436       -0.52264303239111        1.25626796635575
C            8.21396369194226       -1.71233476748894        0.82770459007671
C            7.77578479488083       -2.64399090927525        1.74870623678243
C            7.92188218138024       -2.41070624333263        3.10671548640676
C            8.51095618622920       -1.23288398568721        3.53813500584765
C            8.94578026563058       -0.29202234550304        2.62471118349709
C            7.10368563093516        0.68740892973417       -0.77574750676785
C            4.26222660422395        2.18616733400903       -2.31800316478844
C            2.89810366691200        2.35015271212874       -2.25594359377298
C            2.07936525818888        1.34072052081039       -1.71969057121586
C            0.67367902569850        1.46875864141938       -1.65892461864754
C           -0.10582629711657        0.47867639672257       -1.13375757808604
C            0.46028494061378       -0.71031635611541       -0.62268017879085
C            1.86262147421066       -0.89249299571725       -0.73427443159495
C            2.67933952312596        0.14347271789948       -1.25561348590752
C           -2.67946031394964       -2.56721262401035       -0.44043023460743
C           -2.25069918832663       -3.53249814541973       -1.36320650827868
C           -3.13226095225577       -4.42530100423693       -1.94600554387570
C           -4.48710948107641       -4.34727891356984       -1.65795015455805
C           -4.95196021388164       -3.36456737056993       -0.80692536656993
C           -4.07734577783426       -2.46145741460459       -0.17519853331919
C           -6.72632812623929       -0.19887391689090        0.46734658651121
C          -10.37667715436940       -0.28877605774177       -1.11122322689672
C          -11.63666416133860       -0.45450000672296       -1.65307428366674
H          -13.60554134111742        0.36397637120197       -1.86934976309948
H          -13.10347879004509        2.35851190360983       -0.50027982027489
H          -10.86922833501309        2.65563092188226        0.48082889668934
H           -9.01097754192299        2.92631139990960       -1.60208331975728
H           -8.02251619391279        5.17261667067879       -1.45261797264663
H           -6.68245638738343        5.81260485039598        0.52191088901941
H           -6.34872857863359        4.18793177016232        2.35074023239515
H           -7.35225958049937        1.94566094139797        2.21237312391364
H           -9.82058581014241       -1.05875851852876        1.53513103551479
H           -8.56135355592686       -3.02047387360683        2.33323700363372
H           -6.13295143703146       -3.18510200402002        1.93477660655126
H           -5.18160693124845        0.58918656186070        2.31167670473030
H           -3.62634646521870        2.11879454847060        3.43100555204798
H           -1.18746453581163        1.87310187354743        3.07242401900926
H           -0.33922462923303        0.14404180509793        1.57283519964490
H           -0.34789125407730       -3.79196925797950        0.59678259095558
H            2.07404048361079       -4.09428808796406        0.42267983835678
H            4.28758245974973       -3.22398571625770       -0.18309147566170
H            5.70471504749017       -1.41667880954543       -1.03010543838937
H            6.42468016431025        1.41409196614829       -4.00534540257147
H            8.88671445967861        1.36732553672160       -4.11774284767304
H           10.21296880874322        0.88812280102935       -2.09821589100216
H            9.70017580168297        2.96298805116561       -0.28351221396927
H           11.78993382988152        4.19678500815389        0.10446126180723
H           13.71486563200608        3.07761715247280        1.17574702420071
H           13.53032943746648        0.70674943673513        1.84654957348764
H           11.44867182195544       -0.53556902561868        1.44227556524840
H            8.11407313533141       -1.90222435154965       -0.23122202053732
H            7.32785368501373       -3.56427840392896        1.40355200414924
H            7.58083404841327       -3.14234130758042        3.82374376350045
H            8.62579850819131       -1.04073037286202        4.59508965495087
H            9.39598377807882        0.62977579642960        2.96341905356622
H            6.60747308584156        0.52325950763239        0.17021561010278
H            4.87991026887137        2.97893816764934       -2.71691188024977
H            2.44044240112276        3.26001393619030       -2.61694647321398
H            0.21992567559679        2.37029458937812       -2.04592222576367
H           -1.17925413735411        0.59570491148309       -1.10825750881962
H           -1.20796837004378       -3.57302340768998       -1.63894598430170
H           -2.76373692102655       -5.16775148225343       -2.63868349036658
H           -5.18220278962670       -5.03502372503458       -2.11733247483027
H           -6.01305876682508       -3.27461321506469       -0.63159864635554
H           -6.21498685790921        0.58872208389099       -0.06770846486832
H           -9.60645881687511       -1.02549258529092       -1.28792321284071
H          -11.84667887800377       -1.32803081427168       -2.25319078075681
