112
 energy: -169.735271473136 gnorm: 0.000061692500 xtb: 6.7.1 (edcfbbe)
C          -12.44254641508918        1.02531352721766       -1.80892992735315
C          -12.16932553403697        1.99792815401306       -0.86048062350424
C          -10.94954883344972        2.02107268349386       -0.21194151138487
C           -9.97504452917369        1.06918696682695       -0.51242873081735
N           -8.73721790510021        1.08830034870327        0.14134248456273
C           -8.12236580688347        2.30868737962829        0.44730870157525
C           -8.20004738452095        3.38440611216146       -0.43729003687226
C           -7.59105166924474        4.58549394625617       -0.12789287527650
C           -6.88886682216589        4.73290519628445        1.05761990153730
C           -6.80544678089401        3.66659138070058        1.93853836507510
C           -7.42131115286395        2.46600869284335        1.64291086214811
C           -8.10878027570166       -0.11474306628211        0.48389239563716
C           -8.85752892519973       -1.20469690899787        0.92888606872023
C           -8.22705469978579       -2.38873658501770        1.26071026302814
C           -6.85135564608621       -2.50696750415888        1.16266711905787
C           -6.09170186792520       -1.42559415824009        0.72475726486977
C           -4.62018004149018       -1.53926314477053        0.60750235909957
C           -3.79408907659684       -0.89977837056113        1.54214740555060
C           -4.32704287509736       -0.15236943541399        2.62530014397469
C           -3.51461655008698        0.46518724925365        3.52547716276845
C           -2.11316279824173        0.36743615126355        3.40427645074008
C           -1.56105986083502       -0.35157737324958        2.38944099471713
C           -2.37315934205653       -1.00953345320787        1.42814558728930
C           -1.81403099281748       -1.75871494443373        0.38481576677375
C           -0.34208830924876       -1.89311850836233        0.27737918036279
C            0.28530535299431       -2.99082019868688        0.85485168412106
C            1.65334001199054       -3.15681473171490        0.76966841663881
C            2.44466128077040       -2.22189952489216        0.09994046267668
C            3.85570684577676       -2.37202060534781       -0.02675315895389
C            4.60702606249569       -1.45189522125235       -0.67433418982313
C            4.02158288964370       -0.28683609682844       -1.25415817741326
C            4.78209314641224        0.68303532552202       -1.93063087882338
C            6.25232150909914        0.60835685807228       -2.02225950897931
C            6.87083341884249        0.62757849948974       -3.27064109123613
C            8.25121056397737        0.60218192722411       -3.36169794397561
C            9.03026466322773        0.57049767213227       -2.22108166386239
C            8.42654205279208        0.56874112458821       -0.96321660587059
N            9.20917639587986        0.56183141452731        0.19791401974426
C           10.39605216393316        1.30231269900547        0.24542836317604
C           10.48101379552837        2.54645138325144       -0.38024656539422
C           11.65729418977981        3.26969464279051       -0.33582581567176
C           12.76228660035153        2.77376766073242        0.33740267065387
C           12.68180235401221        1.54125498198867        0.96555581707812
C           11.51281245838658        0.80639606904214        0.91887809502036
C            8.80743218697971       -0.18894319409184        1.30954640939693
C            8.22534927703354       -1.44510844638906        1.14139722793512
C            7.83422601208881       -2.18472308834426        2.24082222766852
C            8.02163688075642       -1.69093318328976        3.52165052274058
C            8.60220864163570       -0.44468900119313        3.69485652705148
C            8.98961443196948        0.30535998860710        2.60118709075876
C            7.03597697669085        0.58209299579321       -0.87536683594227
C            4.13932006625167        1.75876686491917       -2.53721308623403
C            2.77116584471824        1.91502371825059       -2.46338353430251
C            1.98516409945071        0.98627009466766       -1.77901934716171
C            0.57048868999812        1.12269850053289       -1.67589285480432
C           -0.17878887219859        0.20828749037930       -1.01840788476698
C            0.42056288401310       -0.93085275618102       -0.40362279509389
C            1.82632359382886       -1.09285779177496       -0.49159948394938
C            2.61321908055923       -0.13045959452786       -1.17385044620278
C           -2.63898204140360       -2.39806219546931       -0.54967742897705
C           -2.09868906060829       -3.15171364151911       -1.62515988198957
C           -2.90687901914576       -3.75710477458844       -2.53723913913624
C           -4.30823676384972       -3.63982649069182       -2.43348918412805
C           -4.86538471955585       -2.92449349880165       -1.41847829657416
C           -4.06001266571149       -2.28513477660994       -0.43893494450876
C           -6.72399972830484       -0.23799817253005        0.38566007608245
C          -10.25303883477540        0.09650487454629       -1.47313387544532
C          -11.47915772753641        0.07579151314711       -2.10949671045486
H          -13.39860437681199        1.00777202867095       -2.31031286035328
H          -12.91580935718555        2.73978712710449       -0.61591692393485
H          -10.74330196398866        2.77471467524318        0.53428119170881
H           -8.73777488947825        3.26973030144291       -1.36738672892779
H           -7.65823379499939        5.40974343203325       -0.82323646215484
H           -6.40997301611160        5.67161069942488        1.29279253902734
H           -6.26451071109267        3.77251471743377        2.86771397186323
H           -7.36716906545688        1.64125326552183        2.33825713429672
H           -9.93050038791801       -1.11477927504625        1.01410507683358
H           -8.81527147761745       -3.22571692652590        1.60815718105219
H           -6.35989195629448       -3.43146596374396        1.42765541747161
H           -5.40026302937704       -0.08727793277756        2.72302592756871
H           -3.93634207309909        1.03123251206429        4.34354977376552
H           -1.48303785324006        0.86402270065282        4.12799906075086
H           -0.48776769157790       -0.43524606251414        2.29800088119188
H           -0.31682702446382       -3.72239967197063        1.37563780992138
H            2.12237033984432       -4.01878733142082        1.22261614497908
H            4.31247742029130       -3.25230086619785        0.40296966635146
H            5.67223812195884       -1.59244290339419       -0.77528364244220
H            6.26546863489289        0.64747863880127       -4.16482323321144
H            8.72687254638704        0.60224492705092       -4.33179660317690
H           10.10765194107720        0.55013600323629       -2.29440374788260
H            9.61851987951712        2.94070505772572       -0.89801166446604
H           11.70835608220932        4.23253171158787       -0.82348142996271
H           13.67883737974549        3.34343583369573        0.37249169446066
H           13.53950160712584        1.14362048331773        1.48876398745077
H           11.45614877472913       -0.15872738289736        1.40128574506208
H            8.09357736351641       -1.83833457643136        0.14364973971603
H            7.39156666286769       -3.15960873046424        2.09750745375971
H            7.71877236694183       -2.27361410697978        4.37872784687331
H            8.74823956194344       -0.04925132122540        4.68974828726289
H            9.43575104759363        1.27978473984934        2.73842367987586
H            6.56396353739200        0.59765282218926        0.09686508279617
H            4.73595970189319        2.49395505239116       -3.05892335546368
H            2.29647778429268        2.76456520960468       -2.93369904716425
H            0.10721895577626        1.98127314215904       -2.14181628021785
H           -1.25105056204604        0.32155055018874       -0.94719810991355
H           -1.02432784714585       -3.23131518196217       -1.70681608755760
H           -2.48205745050346       -4.32747257562199       -3.35061855733893
H           -4.93498316903915       -4.12057003880442       -3.17080640908591
H           -5.93853296444630       -2.82841762598311       -1.34326225558429
H           -6.13578349840867        0.59816746483710        0.03502692394617
H           -9.50027231560036       -0.63915352572363       -1.71700053282364
H          -11.68016130220107       -0.68288055016781       -2.85213328764022
