  73
       -114.55376221
 N          9.4442268956        1.2888620082        0.4668657038
 C          9.1793795281        0.1627071119        0.5109011831
 C          8.9800258226       -1.2163043058        0.5513337002
 C         10.1280586845       -1.9923252832        0.7523898403
 C         10.0860486524       -3.3635398725        0.6901975674
 C          8.8627298961       -4.0039573673        0.4066047428
 C          7.7281453986       -3.2729272597        0.2066364475
 C          7.7050611728       -1.8558238941        0.2945250055
 C          6.4961398491       -1.1331433353        0.1627283747
 C          6.3259152850        0.1726766560        0.7204238730
 C          5.1777307128        0.8825866754        0.5611479771
 C          4.0827979091        0.3445713728       -0.1567469921
 N          2.9253664687        1.0728092888       -0.3298656328
 C          2.8649712327        2.4243144602       -0.6476491877
 C          3.8923042318        3.3112867871       -0.9287871874
 C          3.5520529624        4.6143414619       -1.2545429466
 C          2.2224561233        5.0229191799       -1.3145500141
 C          1.1910406513        4.1320107796       -1.0754798940
 C          1.5088624875        2.8216997478       -0.7498853194
 C          0.7195436099        1.6520632806       -0.4829176970
 C         -0.6403905677        1.4237482803       -0.4216406739
 C         -1.1101282038        0.1467233071       -0.1090782865
 C         -2.5460594624       -0.1143118064       -0.0590456402
 C         -3.0610118761       -1.3458979436       -0.5012063713
 C         -4.4099666534       -1.6224650722       -0.4952155865
 C         -5.2773874800       -0.6425032998       -0.0249675856
 C         -4.7779355995        0.5907505826        0.4614227581
 C         -3.4216755513        0.8549851127        0.4314684263
 C         -5.9183042802        1.3385421447        0.9183496375
 C         -6.0714101874        2.5994442643        1.4767680505
 C         -7.3460576475        3.0337675203        1.7871126155
 C         -8.4573618444        2.2345444513        1.5321752914
 C         -8.3292840565        0.9751573630        0.9757036933
 C         -7.0500424902        0.5245254738        0.6854579135
 N         -6.6444408447       -0.6688871295        0.1152936975
 C         -7.4895675233       -1.7208709925       -0.2737076001
 C         -8.4183066440       -2.2396655870        0.6233083883
 C         -9.2512018858       -3.2715451803        0.2314062872
 C         -9.1589991258       -3.7969384651       -1.0469401373
 C         -8.2314041354       -3.2838396817       -1.9386188446
 C         -7.4002245803       -2.2461193937       -1.5594642264
 C         -0.1843617917       -0.8768841803        0.1747805342
 C          1.1761184489       -0.6657515634        0.1326726748
 C          1.6384543296        0.5955492869       -0.2300340325
 C          4.2126322872       -0.9611874377       -0.6868955269
 C          5.3648753325       -1.6674279374       -0.5340518977
 H         11.0616062365       -1.4820466916        0.9468010728
 H         10.9792203318       -3.9474148613        0.8481614727
 H          8.8283147582       -5.0823097558        0.3595062021
 H          6.7983438540       -3.7926694154        0.0324810941
 H          7.1131662554        0.5811775294        1.3305214198
 H          5.0610639186        1.8392851281        1.0473309547
 H          4.9250529836        3.0007982499       -0.9144586697
 H          4.3360726906        5.3231329842       -1.4722129239
 H          1.9958433770        6.0476261921       -1.5673834899
 H          0.1602789561        4.4437129370       -1.1486875036
 H         -1.3335103304        2.2218354321       -0.6399969763
 H         -2.3771157481       -2.0873776534       -0.8860071531
 H         -4.7795044540       -2.5763438784       -0.8402686793
 H         -3.0427921642        1.7878232514        0.8202890980
 H         -5.2110539298        3.2248797352        1.6606045686
 H         -7.4872988357        4.0101513777        2.2253092168
 H         -9.4420962855        2.6074934826        1.7705553209
 H         -9.1982099461        0.3702337897        0.7650895010
 H         -8.4705906047       -1.8420339507        1.6261266039
 H         -9.9703322356       -3.6713706561        0.9304668019
 H         -9.8091220626       -4.6040540206       -1.3480576229
 H         -8.1595860175       -3.6870633333       -2.9376638910
 H         -6.6907896649       -1.8269614847       -2.2578497463
 H         -0.5547002363       -1.8448490646        0.4756540086
 H          1.8609692772       -1.4552735122        0.4006321867
 H          3.4071829123       -1.3605799155       -1.2856877172
 H          5.4520094515       -2.6274952281       -1.0173965645
