113
 energy: -157.165018938620 gnorm: 0.000033139452 xtb: 6.7.1 (edcfbbe)
C            5.72631109374511        4.26571366630827       -0.20633693789010
C            6.19545620744827        2.81764813339836       -0.03862969393042
C            7.33466007737691        2.56144228345996       -1.03606391296745
C            6.71664112913658        2.65261646810024        1.39653962978298
C            5.08642022232129        1.81020125331746       -0.29453905639817
C            3.82117516157221        2.18733432966895       -0.72703407412868
C            2.84535321751671        1.22408302055571       -0.93421232337178
C            3.13080814925244       -0.14482654135598       -0.70729894429140
C            4.40404823241466       -0.53633495840068       -0.31888811791218
C            5.35328869474840        0.44474634049949       -0.11332348671859
N            2.01673675227289       -0.90306105750590       -0.99987977011168
C            1.00615374551942       -0.04606453404203       -1.39165341226452
C            1.48074053922473        1.28718151508866       -1.37912601646815
C            0.64234518675786        2.32451682750747       -1.74997923715792
C           -0.68087856091443        2.06513064548797       -2.09735475880048
C           -1.14198495566336        0.74652269946610       -2.03703019226113
C           -0.31863247986482       -0.31171055836744       -1.69562357000653
C           -1.56623509125344        3.21444006423883       -2.55141738693340
C           -1.59124669997758        4.30550338831170       -1.47286867236918
C           -3.01042996156836        2.78180220785408       -2.81732989358889
C           -0.98639090325354        3.78797132637940       -3.85351731892696
C            1.87224400052188       -2.27837010809502       -0.87172137656474
C            1.20172503548953       -3.00863028927013       -1.87835416939855
C            0.89847818141757       -4.32656297277946       -1.68939580659337
C            1.24344792127743       -4.96792980658274       -0.48276816953594
C            2.00368990020939       -4.26868333389964        0.47612227031356
C            2.32781722534461       -2.95481313186680        0.28094843612654
S            0.16966274034701       -6.25561789354174        0.09268479978729
O           -0.36560025807678       -7.01926682345584       -1.00356055378296
O            0.74641304492836       -6.95987099570917        1.20749778308642
C           -0.97540002417425       -5.01639763286982        0.63610409328890
C           -0.66796384446369       -4.32625307289843        1.82590636469178
C           -1.04399964092764       -3.02278964818781        1.98116009453030
C           -1.75269616711715       -2.35675589745064        0.95623663249139
C           -2.16914133722755       -3.08679268432484       -0.17844052961951
C           -1.77259206548086       -4.38523416261959       -0.33996588734640
N           -1.97234747335456       -0.98855595331870        1.04848675235285
C           -3.12563058979647       -0.30025154417293        0.73568222644878
C           -2.91524441768890        1.08783755352778        0.92499562601566
C           -3.94168927882920        1.99058420324063        0.69164846175754
C           -5.18403474810414        1.53353413148289        0.26994906602103
C           -5.37621243701056        0.15112131767807        0.12665891318416
C           -4.37529282569685       -0.77091118186460        0.35872923732391
C           -6.34582314011402        2.47187678204110       -0.01320451034242
C           -5.95534908970838        3.94739614457552        0.11134336255672
C           -6.85792830456592        2.23730276778601       -1.44194810512922
C           -7.46914941153084        2.18376371322476        0.99348710805776
C           -1.55665594399308        1.23710862554110        1.36778705214852
C           -1.01035414983429       -0.06754758978227        1.41664413286301
C            0.32646918262830       -0.25244978144532        1.72766639089879
C            1.09067207455062        0.85786774681684        2.03987486207296
C            0.55857661173109        2.15065055284200        2.06412852961328
C           -0.77631554320320        2.32819312116807        1.70999714968851
C            1.37961571760856        3.35822268571345        2.48671313881899
C            2.84521024249141        3.01238036389103        2.76243545406162
C            1.34548905833540        4.42021522642119        1.37978533606678
C            0.76862295036244        3.93327541544868        3.77381417202639
H            6.54955138557776        4.94029751659322        0.01922270580062
H            5.40747110682071        4.46035903060808       -1.22768078717285
H            4.90885885851181        4.49297378827484        0.47405711500864
H            7.74720667493483        1.56344641352875       -0.91730548863639
H            8.13475176762250        3.28236536741633       -0.88307180059108
H            6.97065788382093        2.66019127677567       -2.05666624494025
H            7.13164117385150        1.66246291965504        1.56029109359469
H            5.91155894302510        2.80831447689774        2.11133723745126
H            7.49851659411875        3.38277254581814        1.59354379453583
H            3.58071295854814        3.22004502653289       -0.91707874128516
H            4.65838967294776       -1.57769395359356       -0.19675453229984
H            6.34112302827567        0.13466934693596        0.18903114048822
H            1.02956550791040        3.33111580053802       -1.77318469861149
H           -2.17114614831818        0.52480179593715       -2.26404166148659
H           -0.70724819968843       -1.31731937294350       -1.65531331481621
H           -2.25626732001935        5.11279138047812       -1.77350117564650
H           -1.94987067600843        3.88643876172212       -0.53682842228984
H           -0.60412305643234        4.72655148689447       -1.30656514054596
H           -3.06133247219408        2.05330287390083       -3.62310049168978
H           -3.59706312515258        3.64887782855140       -3.11628826508271
H           -3.45917607113733        2.35727339213417       -1.92159967222463
H            0.02465732212994        4.15773537452361       -3.70590809724519
H           -0.95877551726812        3.01990918083058       -4.62349590295451
H           -1.60360187455249        4.61062062119694       -4.20826392498768
H            0.95763231996174       -2.51141047529156       -2.80551958380160
H            0.38433309821122       -4.90298713655255       -2.44177036429795
H            2.29319284075375       -4.79316061479607        1.37269950794056
H            2.87498344613803       -2.40750979563688        1.03407195451424
H           -0.12344081712199       -4.85386332598143        2.59259033385873
H           -0.82898188658184       -2.48925083668952        2.89524360677275
H           -2.74503788911351       -2.59011576587152       -0.94511451166093
H           -2.03179406061513       -4.94781104986132       -1.22260589470607
H           -3.75793506419269        3.03965818702802        0.85322434919184
H           -6.34545916714661       -0.22037141105642       -0.16647683678186
H           -4.57252504179049       -1.82752681195445        0.26542299571977
H           -5.64795450365220        4.18893937281438        1.12615552229612
H           -5.15096693886388        4.19815320472906       -0.57632633096353
H           -6.81358419731458        4.56978507358262       -0.13304811624894
H           -7.22021965980298        1.22228032987971       -1.57575837554504
H           -6.06237982115667        2.41410680634769       -2.16248991252464
H           -7.67730193430457        2.91906958850887       -1.65894509845044
H           -7.82665911350989        1.16166638258618        0.90508554370749
H           -8.30736684651850        2.85519449079620        0.82070522808369
H           -7.11080885444304        2.33241401565721        2.01003791151781
H            0.76917250036224       -1.23618091490001        1.71480884413260
H            2.13004358098753        0.69867657406441        2.27274852173673
H           -1.21765946818097        3.31251993993900        1.70567847906004
H            2.93565818363978        2.30951439620673        3.58727377600074
H            3.31679050703074        2.58933368598222        1.87780083101149
H            3.38344334201880        3.91789625370120        3.03753072274093
H            1.96564715399746        5.27004523301009        1.65823921159806
H            1.72649939032636        3.99667801563998        0.45467746434071
H            0.33700858854732        4.78257555065366        1.20370947859740
H            1.33953463957935        4.79769873747739        4.10604205371045
H           -0.26117165265439        4.24284162384186        3.61749395815641
H            0.78294128459188        3.18549395236806        4.56385851592335
