113
 energy: -157.251101244456 gnorm: 0.000061806479 xtb: 6.7.1 (edcfbbe)
C            5.36919010601096        3.75999712719274        4.31454515375359
C            5.60090235175745        3.90100194892068        2.80339378740848
C            4.64516150106097        4.95455159755287        2.22603758796480
C            7.03520131336309        4.39169526130125        2.58778595706469
C            5.33458812973782        2.56146815144575        2.13235371224559
C            6.29675575698674        1.88989731116746        1.39582755222285
C            5.99259202124338        0.66369938603663        0.82047210671023
C            4.71661757923839        0.08864451348882        0.98686439388807
C            3.73493001750369        0.76707854937453        1.69141957423057
C            4.06382603446547        1.98460552749506        2.25318867529641
N            4.65924537761608       -1.11465942470182        0.30309966228676
C            5.89045706286688       -1.32482661771925       -0.29827186519399
C            6.74799451071905       -0.24522723823509        0.00117357901279
C            8.05043488032452       -0.23354623929327       -0.47099422545971
C            8.52290734280333       -1.29290583889511       -1.23473043472653
C            7.66367577779055       -2.36486538658656       -1.48911340688372
C            6.35901769741363       -2.40198380280913       -1.03007551874089
C            9.95456734086383       -1.25230996756462       -1.75032263683541
C           10.91536529901302       -1.17632035080273       -0.55521602092152
C           10.13036882673449       -0.01207060270341       -2.63822637528151
C           10.32497677628377       -2.48492062257245       -2.57948031339397
C            3.56845772561764       -1.97880185363900        0.25143371467527
C            2.87728350774060       -2.30820906792544        1.41974100212462
C            1.80622725144982       -3.17824840141247        1.36634761003304
C            1.43142623051115       -3.72685652679035        0.15396072552472
C            2.10249206211944       -3.40808897058441       -1.01139808534923
C            3.16897808440638       -2.53143249022970       -0.96730434429393
S            0.03754504860967       -4.85469915531224        0.09271370427098
O            0.11992200813638       -5.61307219065120       -1.12783488183349
O           -0.03316207258853       -5.56398482949751        1.34316108629015
C           -1.37382249497840       -3.75229085315297       -0.01330297202350
C           -1.77385993109337       -3.27995129919167       -1.24944763203748
C           -2.85846063075648       -2.42956418434019       -1.33678391976286
C           -3.53736206232055       -2.04244653713310       -0.17905860105966
C           -3.11218698059116       -2.51779210293798        1.06339237440359
C           -2.03276433566369       -3.37592712279326        1.14182350451768
N           -4.64147529751902       -1.19804391631565       -0.26342521730099
C           -4.72679815302280       -0.03665745560361       -1.01352118071539
C           -6.00800974938657        0.52999941081103       -0.85882144790356
C           -6.33840426269937        1.71750869389917       -1.49741490099986
C           -5.39748857877516        2.35886560301898       -2.28646944291881
C           -4.12096132539551        1.79257584064122       -2.39597779237649
C           -3.76616135874900        0.61328273174760       -1.77188194151398
C           -5.69270853451330        3.65526181942073       -3.02658971035716
C           -4.74299681489501        4.75161006638470       -2.52374436591457
C           -5.48209272959056        3.43359889435572       -4.53112379182722
C           -7.13024078306711        4.13843239547274       -2.81560280133748
C           -6.73741231436090       -0.34073509658116        0.02317105829576
C           -5.85989678806838       -1.38989370033949        0.36928557748017
C           -6.30124397839210       -2.42963330032768        1.16897875458720
C           -7.59896626655961       -2.38407372737219        1.64649561679216
C           -8.47754553686222       -1.34024895903386        1.34547999904576
C           -8.03231392833521       -0.31970514824885        0.51538315072504
C           -9.90137387495171       -1.28975327956245        1.88149630673669
C          -10.24223018422753       -2.48026424973299        2.78180419178268
C          -10.07936226339634       -0.00547353200895        2.70395096862698
C          -10.88208528831945       -1.29058861066690        0.70024332369938
H            5.57567501869537        4.70365790352963        4.81518509937401
H            4.34397124134749        3.47615509360793        4.53481871394834
H            6.02936329605781        2.99917849961443        4.72592835931734
H            4.78884900235299        5.04283260830162        1.15109254023653
H            4.83725928482732        5.92401280032955        2.68105164173579
H            3.60694400981992        4.69284594826880        2.40991848799061
H            7.24251508642881        4.54348049949375        1.53102233020292
H            7.75523329487366        3.68636885956342        2.99623873239092
H            7.17257500873309        5.34394625144934        3.09624746562824
H            7.28335640986462        2.29674884338554        1.25048166364001
H            2.73586924084950        0.37012791991838        1.79229031181065
H            3.29630962486122        2.50602755118319        2.80447339017699
H            8.68514717238756        0.60479113366936       -0.22906630290389
H            8.01201752279896       -3.20961080079277       -2.05958964142693
H            5.73771732638976       -3.26180188853981       -1.23003125452405
H           10.74833051806435       -0.27749133455945        0.03164249319263
H           10.77542301434678       -2.03793188894741        0.09429207579460
H           11.94645063035177       -1.16934923185473       -0.90250571014861
H            9.43965277788519       -0.05067572859342       -3.47807606627795
H           11.14542428567151        0.02993576961048       -3.02768173428176
H            9.94076032744184        0.90287923222882       -2.08406126260596
H           10.25318508630010       -3.39329155445622       -1.98589639144533
H            9.68423078486673       -2.57669449703636       -3.45343354959050
H           11.35251990592619       -2.39184612551155       -2.92561818187395
H            3.20540353927751       -1.90111830624463        2.36373036005338
H            1.27408376466286       -3.46818420258744        2.25846528100597
H            1.78569339487282       -3.86470632580556       -1.93577662587504
H            3.69142256154698       -2.25884467512273       -1.87129261031456
H           -1.24976206983735       -3.61378734623628       -2.13094690058211
H           -3.20622762185153       -2.08271532232243       -2.29764583394707
H           -3.62532916509110       -2.20019136098453        1.95796886422164
H           -1.69704519056548       -3.77428822090199        2.08622821984127
H           -7.32818883808549        2.11899874094307       -1.35894821863079
H           -3.36975172804513        2.29178728214144       -2.98872208190728
H           -2.76344308443104        0.22422475736734       -1.86698407035051
H           -4.87187220241977        4.89789516773777       -1.45325885999767
H           -3.70414785208513        4.49334686003641       -2.70894548978750
H           -4.95506833047033        5.69161763023261       -3.02891644649458
H           -4.45631678616648        3.15213659767873       -4.75183374544741
H           -5.71000783502095        4.34502667638337       -5.07987729220352
H           -6.13726456628223        2.64206408012470       -4.88906828142292
H           -7.84653101734355        3.40213525660390       -3.17276488270819
H           -7.28856280446064        5.05905844279216       -3.37378321116625
H           -7.32352300750636        4.34607464482965       -1.76570450151792
H           -5.66446341947384       -3.26804720557658        1.40742638298585
H           -7.92601332619982       -3.19940520071895        2.26991247817373
H           -8.68266739367492        0.49501482317763        0.23704824183904
H          -10.16564414570206       -3.41854679179632        2.23736995989548
H           -9.58805541785753       -2.51555200842245        3.64988627277720
H          -11.26605066861213       -2.38252305112955        3.13755655861052
H           -9.91262495267669        0.88031198461348        2.09748906090186
H          -11.08790023570461        0.04411360126746        3.10913034354296
H           -9.37347880910011        0.01099017023232        3.53183850763509
H          -10.74197508583166       -2.18498379109525        0.09672152318061
H          -11.90745550538177       -1.27631404841961        1.06385267500011
H          -10.73573717494794       -0.42358789938740        0.06223052752127
