113
 energy: -157.165018945432 gnorm: 0.000048320426 xtb: 6.7.1 (edcfbbe)
C            5.84090281373381        4.11400566918230       -0.24540768310881
C            6.27207429788768        2.65181359897505       -0.09991948726104
C            7.39118995463685        2.37618480666563       -1.11476759572446
C            6.80647540625989        2.45590324987098        1.32647229634981
C            5.13260881306610        1.67811214890696       -0.35269001208371
C            3.87205935050600        2.09487599372052       -0.76187800374902
C            2.86787026643142        1.16098662607683       -0.96793236823051
C            3.11956180282612       -0.21806423718145       -0.76367120453490
C            4.38685775001591       -0.64874503882007       -0.39796049428711
C            5.36488987875836        0.30370548026750       -0.19274933300168
N            1.98180904894019       -0.94220705408064       -1.05134304801958
C            0.98934106922265       -0.05323598318095       -1.41727258634026
C            1.49947363993418        1.26663658576118       -1.39268044899126
C            0.68398472063892        2.33109319602092       -1.73678224008158
C           -0.65039088411634        2.11192905787792       -2.06885313412143
C           -1.14546755354112        0.80516322582732       -2.02134376419757
C           -0.34596178154745       -0.27936222340708       -1.70680953920213
C           -1.51116619497256        3.29093672988013       -2.49306923360406
C           -1.49229501799411        4.36565301274445       -1.39811437018608
C           -2.96992105762413        2.90065199945597       -2.74460107844920
C           -0.93449677434826        3.86890008279341       -3.79460700339228
C            1.80241175106636       -2.31491458811255       -0.94040286316106
C            1.10024783690309       -3.01284213862369       -1.94837644967330
C            0.76468088529991       -4.32492962195304       -1.77392940735987
C            1.10750858047733       -4.99225216713175       -0.58079233290927
C            1.89783684031576       -4.32691047485717        0.37793958920261
C            2.25425383812395       -3.01941105558896        0.19684583000476
S            0.00720399574006       -6.25919605634245       -0.00951461918590
O           -0.56214270488929       -6.99250665209976       -1.10929453220168
O            0.57908955603419       -6.99445053003117        1.08764581828337
C           -1.09739450953164       -4.99803813888765        0.56616963737793
C           -0.75709560425761       -4.33390579730668        1.76178931202540
C           -1.09618909019158       -3.02332502323588        1.94047606097182
C           -1.79938307736281       -2.32373016443224        0.93430621644470
C           -2.24901777829043       -3.02565534963162       -0.20540481462361
C           -1.88927126920729       -4.33163835742925       -0.39059612868992
N           -1.98141139087651       -0.95174114318082        1.04922990280631
C           -3.11998689004364       -0.22863030348683        0.76215329350812
C           -2.87061863974332        1.15032595832547        0.96998780842755
C           -3.87609006301112        2.08312729119753        0.76518506492904
C           -5.13552436041765        1.66542107350573        0.35348736848831
C           -5.36543892926729        0.29105831200297        0.18977807929091
C           -4.38618182145221       -0.66037351014616        0.39390838785844
C           -6.27629506689905        2.63790383699243        0.10181579701583
C           -5.84817003883252        4.10037463332556        0.25336802111920
C           -6.80745469652827        2.44595708355978       -1.32632982195557
C           -7.39701649502359        2.35668153647338        1.11336624608229
C           -1.50274467248880        1.25706719226685        1.39621709058277
C           -0.99063082257789       -0.06209533938274        1.41814828548048
C            0.34479741845511       -0.28690672359143        1.70813301979473
C            1.14251177153220        0.79809338654982        2.02550020203227
C            0.64552784797665        2.10404693442109        2.07545721103746
C           -0.68900863753603        2.32196367183823        1.74316539595730
C            1.50450218511225        3.28329645953451        2.50267311940884
C            2.96417853325741        2.89491173987960        2.75190721516286
C            1.48298458706095        4.36143232700905        1.41113775856700
C            0.92762055905546        3.85606538993218        3.80641287957234
H            6.68552967623991        4.76314821331251       -0.02430669829481
H            5.51346081961732        4.32860613472414       -1.26001389656168
H            5.03954620464450        4.35613098790024        0.44886992491743
H            7.77758802554775        1.36595269959291       -1.01276459687858
H            8.21271009324877        3.07304322014103       -0.96384772488617
H            7.01728430205967        2.49689084720026       -2.12941015813849
H            7.19603996928126        1.45288249807225        1.47359901524959
H            6.01497487590973        2.62518882313495        2.05324772947891
H            7.61053904483421        3.16205033368336        1.52169140731482
H            3.65683175816231        3.13614661770482       -0.93468010891177
H            4.61461339007932       -1.69809635202014       -0.29295263075584
H            6.34794170965845       -0.03673514187380        0.09202155758019
H            1.09754118173192        3.32732694820690       -1.75114613536433
H           -2.18312791977869        0.61406233782329       -2.23724254323996
H           -0.76048357800502       -1.27490208346456       -1.67576795541846
H           -1.85003983173057        3.94216440303548       -0.46373026525291
H           -0.49196894381271        4.75719754112142       -1.23880499846018
H           -2.13890229761057        5.19515734149625       -1.67770286152271
H           -3.05151861203551        2.18628045605184       -3.56042844040567
H           -3.53741715284671        3.78743861548754       -3.02190604129945
H           -3.41714670350387        2.47436119145944       -1.84894944379678
H            0.08770860160134        4.21029356366971       -3.65577090116723
H           -0.93730915234823        3.11205897892753       -4.57609796834029
H           -1.53495765149846        4.71239948808861       -4.12852809970812
H            0.85785284079528       -2.49619255199279       -2.86530944927259
H            0.22629204588713       -4.87692870994725       -2.52765710098762
H            2.18436913509103       -4.87150923138296        1.26340253945231
H            2.82512048910523       -2.49742545744509        0.95035248183040
H           -0.21758953419218       -4.88702627138185        2.51391190280022
H           -0.85576365349063       -2.50915520993153        2.85932386794930
H           -2.82074382388265       -2.50262639234860       -0.95753984085670
H           -2.17410155945848       -4.87408985794770       -1.27792766624821
H           -3.66274521452325        3.12429202076903        0.94093718488577
H           -6.34757781616807       -0.05020222908767       -0.09715238160710
H           -4.61220063152674       -1.70981214078064        0.28607879961710
H           -5.52287789512826        4.31187325520978        1.26932068564202
H           -5.04612180815710        4.34663401543054       -0.43864760466560
H           -6.69367772178542        4.74867580864589        0.03317190876047
H           -7.19364346373627        1.44231719089085       -1.47809498374724
H           -6.01518065230345        2.62051626145819       -2.05100036665645
H           -7.61331070679289        3.15041663727877       -1.52024478155930
H           -7.78214233315545        1.34649046258437        1.00631971262530
H           -8.21902536741972        3.05326448829109        0.96385179696194
H           -7.02517350564344        2.47347831937809        2.12922088118013
H            0.76082773417869       -1.28174683154672        1.67510676884910
H            2.18031901779214        0.60805453012475        2.24162041562710
H           -1.10401882423791        3.31755625985531        1.75937440624752
H            3.04780471949976        2.17846711558557        3.56570377538072
H            3.41145966780488        2.47193964445894        1.85470422413336
H            3.53030460155548        3.78194624205001        3.03119907833292
H            2.12894642720345        5.19081253956000        1.69257045554436
H            1.84009137742637        3.94130651629493        0.47500223457737
H            0.48202202540549        4.75234335180514        1.25431289788729
H            1.52619547273817        4.70019489642674        4.14211682902259
H           -0.09562443825292        4.19512493890930        3.66947770900121
H            0.93316925049781        3.09704560364923        4.58577494120460
