113
 energy: -157.258485205148 gnorm: 0.000060982733 xtb: 6.7.1 (edcfbbe)
C            5.69228962571862        4.34971826481213       -0.21850183965808
C            6.20813449035456        2.91861534232298       -0.04328141702554
C            7.37052272179617        2.70133131926860       -1.02215849920790
C            6.71148763147877        2.77263648509525        1.40001585986648
C            5.13453123729387        1.87498401029888       -0.31489709398968
C            3.86660624229544        2.20849122769443       -0.76542514984803
C            2.92311123917991        1.21223332904322       -0.97736032316384
C            3.24891711088313       -0.13996999523901       -0.74286685135591
C            4.52519846977215       -0.49059515652039       -0.33360721114666
C            5.43956314944991        0.52184746637845       -0.12085270167557
N            2.16054979564071       -0.93543231898546       -1.04916347626295
C            1.12023616232975       -0.10563879837063       -1.44053139840045
C            1.55504578455274        1.23488787398510       -1.42229322451306
C            0.68475217088225        2.25212321085961       -1.78164864418235
C           -0.62948208936713        1.95954486809085       -2.12104618147799
C           -1.04941019920571        0.62830060533864       -2.07028202681382
C           -0.19598502394669       -0.40813849824466       -1.74085174665997
C           -1.55330187744366        3.08666174506036       -2.56031196152638
C           -1.59624947163539        4.17203321233533       -1.47745516058973
C           -2.98903168880627        2.61557259027318       -2.80786976171145
C           -1.00738314085197        3.67979519441698       -3.86771194903474
C            2.03321701243998       -2.31451587970891       -0.91054626134617
C            1.41261084398937       -3.04589280236840       -1.92725577361110
C            1.02933915543756       -4.35183236547031       -1.70339139744447
C            1.29419647106570       -4.94251014567588       -0.47957855929429
C            2.03911865281665       -4.27411043920554        0.47693311643833
C            2.42460141877628       -2.96517423865657        0.26121234410317
S            0.16153327871800       -6.22928787980248        0.07053181081634
O           -0.33734556205514       -6.98652546244840       -1.04349656333191
O            0.68490866567424       -6.93158588394536        1.20902873183485
C           -1.01623625327189       -4.96528615363798        0.57879604366543
C           -0.77153712168314       -4.32375866015040        1.78102590224599
C           -1.21348710125077       -3.03044186851538        1.96620108287817
C           -1.87708853789623       -2.36239348852278        0.93324308814754
C           -2.24077417322610       -3.06655306541473       -0.21618528171725
C           -1.79387710153477       -4.36179310478239       -0.39439404086098
N           -2.08197303833590       -0.98945905893091        1.03631514045431
C           -3.22379761780614       -0.26967736084951        0.73677692511002
C           -2.98437488195843        1.10283313785660        0.95650263922796
C           -3.99403734779249        2.03388557025455        0.75345418854394
C           -5.24458279969878        1.61454784793433        0.32733675130034
C           -5.46189629159764        0.24317653314251        0.14320544111665
C           -4.47968438485814       -0.70567839280371        0.34687059300459
C           -6.39013704942268        2.58307940093367        0.07274845847089
C           -5.97196998957481        4.04544357618910        0.24986827999112
C           -6.89720449510979        2.40833809450156       -1.36589059984045
C           -7.52389904719549        2.28309437093880        1.06334744475772
C           -1.61613394080473        1.21862122451245        1.38516652900007
C           -1.09455954607678       -0.09042504251443        1.41066116352827
C            0.24095689763350       -0.30319254550698        1.70307388524168
C            1.02676627886798        0.78995425790023        2.01775574142547
C            0.52057137317342        2.09122510209830        2.06064435534471
C           -0.81222505748252        2.29403586913082        1.72877087647882
C            1.37063716818604        3.28263248526406        2.47852909868094
C            2.83055193248020        2.90577822200754        2.74406034427576
C            1.35221351439644        4.34189608990564        1.36920744313140
C            0.78324714317805        3.87335780030101        3.76887021098354
H            6.48785322274420        5.05295609834728        0.01933824542030
H            5.38172075767520        4.53294545649434       -1.24446307829274
H            4.85675029280087        4.54688463067762        0.44911666856424
H            7.81118411721924        1.71575827526460       -0.89891585676693
H            8.14623141054484        3.44575916506203       -0.85541685382387
H            7.01980321237893        2.79117216333356       -2.04826036893025
H            7.16415797653784        1.79992059990274        1.56933834217493
H            5.88809967493197        2.89261359926108        2.10062685901756
H            7.45926054022276        3.53378800410680        1.61254523913681
H            3.59293858383472        3.23143636993011       -0.96292222339430
H            4.80872736870370       -1.52294824567818       -0.19416153899749
H            6.43082871245785        0.24398563189383        0.20263691734744
H            1.04465270002532        3.26906431079722       -1.79594666222227
H           -2.07337761354298        0.37869196790171       -2.29365829294524
H           -0.55899682822976       -1.42462380920744       -1.70617512311483
H           -2.28776256723877        4.96167262526293       -1.76561296108602
H           -1.93062383844599        3.73781008173917       -0.53958426383674
H           -0.61929742142369        4.61997418738247       -1.32151879347826
H           -3.03198159610420        1.88815772987653       -3.61520997246863
H           -3.60224338241222        3.46770395051367       -3.09663383099768
H           -3.41542814952433        2.17844422972930       -1.90744199471588
H           -0.00365803402449        4.07338939636579       -3.73156547372794
H           -0.97062246371299        2.91560055488567       -4.64137804245940
H           -1.64908734362241        4.48850950470815       -4.21143341368095
H            1.19584207943469       -2.56327874165878       -2.86778851118854
H            0.49037414635077       -4.91576840583822       -2.44834834157570
H            2.26089353721356       -4.77422684259216        1.40672879468213
H            2.95381961520666       -2.41912885572851        1.02707285526378
H           -0.20434275019176       -4.83868157338377        2.54033875140749
H           -1.01347130595531       -2.50852285768724        2.88931663307708
H           -2.80017003483921       -2.57048534471334       -0.99448473839585
H           -1.99568288733216       -4.90032051179482       -1.30716592882885
H           -3.78450213429172        3.07394209732100        0.93966968162344
H           -6.43726205881684       -0.10128158734268       -0.16421470608507
H           -4.69687355724368       -1.75515700036297        0.21669193934419
H           -5.65877425378387        4.24355145114210        1.27228449534360
H           -5.16266444637372        4.30408061916487       -0.42907222402229
H           -6.81792318816285        4.69320777344751        0.02895666653740
H           -7.28027176492553        1.40621595220307       -1.53561975268197
H           -6.09151756554865        2.59014177229686       -2.07383988513438
H           -7.69975944640395        3.11489151007211       -1.56684210728449
H           -7.89975845897071        1.27121087950237        0.93908199614922
H           -8.34935577026661        2.97513586598588        0.91040940140346
H           -7.16772563345188        2.39038230769698        2.08591153488358
H            0.66925151697092       -1.29424739178925        1.67493243149434
H            2.06646639488192        0.60992753249271        2.23541904851769
H           -1.23804972178628        3.28533753447311        1.73737584565509
H            2.91123718660603        2.19709242689679        3.56513301219427
H            3.28908624570522        2.47843496468225        1.85485900370555
H            3.38824183445767        3.79920927711855        3.02051837339751
H            1.98898640095134        5.18166325636323        1.64143977393597
H            1.72087651668221        3.90763499959368        0.44416075586226
H            0.34929698899266        4.72102839162102        1.19611572881551
H            1.37568522629233        4.72516326193091        4.09662329199671
H           -0.24028764858468        4.20619347801858        3.61942136984010
H            0.78562928806459        3.12632100309314        4.55993148212527
