  113
       -157.16291040
 C          5.8495530131        4.1183672546       -0.2488369708
 C          6.2833939823        2.6565551950       -0.1076267774
 C          7.4010561229        2.3850903013       -1.1252619386
 C          6.8205776190        2.4580770034        1.3174167176
 C          5.1452952783        1.6815063251       -0.3601591258
 C          3.8831290189        2.0976825851       -0.7652530060
 C          2.8790001078        1.1627861985       -0.9708635585
 C          3.1343061954       -0.2169628394       -0.7687578322
 C          4.4025068771       -0.6465287011       -0.4068406717
 C          5.3806435437        0.3070347464       -0.2030279921
 N          1.9963053196       -0.9419077282       -1.0531270318
 C          1.0007926081       -0.0545071617       -1.4134179282
 C          1.5102427783        1.2666495032       -1.3907257140
 C          0.6915099253        2.3299058728       -1.7336549332
 C         -0.6440565519        2.1085948174       -2.0600991213
 C         -1.1384113053        0.8014344547       -2.0080511621
 C         -0.3355830470       -0.2822141811       -1.6959809695
 C         -1.5072563784        3.2861245682       -2.4828869597
 C         -1.4869241386        4.3613700122       -1.3884177044
 C         -2.9662062328        2.8944698654       -2.7310914406
 C         -0.9342631484        3.8646157202       -3.7859299169
 C          1.8189347056       -2.3151601322       -0.9428939022
 C          1.1153074568       -3.0124042369       -1.9482927746
 C          0.7731966825       -4.3235047051       -1.7688612723
 C          1.1127226971       -4.9862586877       -0.5753213761
 C          1.9050672259       -4.3239824587        0.3797438567
 C          2.2685390272       -3.0175314834        0.1948570809
 S          0.0093084519       -6.2519057071       -0.0016381544
 O         -0.5580147483       -6.9878448859       -1.1007160086
 O          0.5808824346       -6.9851073417        1.0972207474
 C         -1.1010066959       -4.9927053811        0.5725800152
 C         -0.7655531488       -4.3289717390        1.7667713235
 C         -1.1128900464       -3.0193123981        1.9459632690
 C         -1.8174016270       -2.3242358137        0.9394354435
 C         -2.2635876258       -3.0282142799       -0.1986782318
 C         -1.8954517424       -4.3333800919       -0.3830106404
 N         -1.9978451007       -0.9515260075        1.0496766336
 C         -3.1359132925       -0.2273486975        0.7648632473
 C         -2.8828794552        1.1523472863        0.9712491374
 C         -3.8883499053        2.0861302926        0.7664375642
 C         -5.1488732369        1.6692202944        0.3569425421
 C         -5.3814538864        0.2948513746        0.1940782252
 C         -4.4025454224       -0.6576866052        0.3981090162
 C         -6.2879753479        2.6427764152        0.1031117679
 C         -5.8607467843        4.1047038501        0.2617970105
 C         -6.8105354436        2.4548736947       -1.3288595635
 C         -7.4150413744        2.3590474784        1.1069065686
 C         -1.5146678976        1.2570364103        1.3931326968
 C         -1.0036379245       -0.0635322114        1.4127861588
 C          0.3328111058       -0.2912452244        1.6941744183
 C          1.1349105862        0.7921192929        2.0091262441
 C          0.6391126938        2.0984275931        2.0658972014
 C         -0.6966970783        2.3197738570        1.7399624975
 C          1.5013046308        3.2744335425        2.4950899743
 C          2.9606557043        2.8827346525        2.7411780743
 C          1.4802776927        4.3564446149        1.4074256809
 C          0.9275428266        3.8441345617        3.8016922020
 H          6.6933094915        4.7682799691       -0.0267328354
 H          5.5207575984        4.3352098208       -1.2625311946
 H          5.0484748571        4.3572849745        0.4468668986
 H          7.7886459907        1.3749619831       -1.0269349446
 H          8.2220446110        3.0824302636       -0.9736851053
 H          7.0251742471        2.5084066636       -2.1388626547
 H          7.2120450480        1.4553684938        1.4614865242
 H          6.0297986301        2.6242094496        2.0457440164
 H          7.6237155222        3.1651661914        1.5130225566
 H          3.6661819605        3.1390487186       -0.9350899461
 H          4.6317338647       -1.6956716631       -0.3026324966
 H          6.3647021978       -0.0326692438        0.0787938076
 H          1.1042855904        3.3263597759       -1.7524922351
 H         -2.1768289487        0.6092418244       -2.2188656270
 H         -0.7486137570       -1.2784506888       -1.6627096371
 H         -1.8414344035        3.9377296709       -0.4529429076
 H         -0.4867824347        4.7544878941       -1.2321518668
 H         -2.1355202637        5.1897576752       -1.6665976399
 H         -3.0488406399        2.1790400258       -3.5458812221
 H         -3.5348004487        3.7805768745       -3.0083063011
 H         -3.4115364107        2.4690031168       -1.8340966091
 H          0.0879464982        4.2071044994       -3.6497653784
 H         -0.9384149432        3.1079295463       -4.5676010860
 H         -1.5364938406        4.7075938802       -4.1179665449
 H          0.8719302913       -2.4970113298       -2.8656658995
 H          0.2288582827       -4.8740058125       -2.5194590939
 H          2.1874748610       -4.8659481560        1.2682196236
 H          2.8403861349       -2.4959291916        0.9478605746
 H         -0.2197650148       -4.8774115551        2.5178407997
 H         -0.8728339697       -2.5031565786        2.8637910820
 H         -2.8363898153       -2.5085987602       -0.9523171404
 H         -2.1754136400       -4.8765717471       -1.2715002412
 H         -3.6734323334        3.1273392409        0.9398911597
 H         -6.3640515468       -0.0453375716       -0.0922064913
 H         -4.6297101900       -1.7069193632        0.2903069132
 H         -5.5380278554        4.3118191076        1.2794847650
 H         -5.0570598950        4.3542265736       -0.4271329465
 H         -6.7059227910        4.7536444139        0.0421741802
 H         -7.1964205030        1.4518035372       -1.4852004651
 H         -6.0135046786        2.6303312377       -2.0480903628
 H         -7.6145224740        3.1605390642       -1.5261070298
 H         -7.7995161061        1.3491626185        0.9954497743
 H         -8.2361942464        3.0557901397        0.9535795878
 H         -7.0498023354        2.4738089749        2.1253474577
 H          0.7467744661       -1.2869038240        1.6570594611
 H          2.1736013656        0.6000628958        2.2185550655
 H         -1.1099879609        3.3159567567        1.7627240515
 H          3.0439187176        2.1625512428        3.5516980723
 H          3.4068156224        2.4631837032        1.8418023017
 H          3.5283240206        3.7677162050        3.0238659943
 H          2.1266898328        5.1844325405        1.6919364994
 H          1.8372957415        3.9394123972        0.4699025530
 H          0.4794910733        4.7483105094        1.2519764593
 H          1.5290898707        4.6852431808        4.1396520969
 H         -0.0948297738        4.1867828539        3.6673524284
 H          0.9318782603        3.0822288618        4.5782314674
