53
 energy: -85.849154218551 gnorm: 0.000083953589 xtb: 6.7.1 (edcfbbe)
C           -7.52924894572987       -2.54886111275811        0.28355153868565
O           -6.18647897943286       -2.98906546862988        0.34166499896453
C           -5.18877801162830       -2.09205983276012        0.24584132381795
C           -3.88651382339177       -2.63391874018645        0.33160277698095
C           -2.76735163075908       -1.84474663449574        0.24162255386277
C           -2.94267355541552       -0.47226457416672        0.04764113148827
C           -4.24841440178095        0.08825183933125        0.00095690752699
C           -5.37005686249203       -0.71439863283549        0.09199488912632
C           -4.07302508965656        1.51198731228519       -0.13177182200039
C           -4.95305564373064        2.57572386106863       -0.24202293192447
C           -4.43192828256113        3.85231806183946       -0.39788786254397
C           -3.05881978507839        4.06435514272603       -0.46519457665340
C           -2.16003631149832        3.01394402740511       -0.35749249652391
C           -2.67497825596206        1.74039165865033       -0.16311038978342
N           -2.01080512347706        0.52776020054567       -0.04877066790985
C           -0.63435582816415        0.36048673595458       -0.04310336964974
C           -0.02785022618806       -0.65458012737462       -0.81083156044434
C            1.32578872107634       -0.82209987347692       -0.80001555842796
C            2.17842221462604        0.00576850523212       -0.01494713444368
C            3.58571884429108       -0.17669543310283        0.00340165657563
C            4.50977983476601        0.91134796389434        0.20835217215529
C            4.10116614534260        2.24683263863297        0.27511880336605
N            3.84155848925195        3.37190456538078        0.29760134250297
C            5.88316060841322        0.67350692704707        0.21597527563472
C            6.87205761802549        1.78072611996915        0.40834125684677
N            6.39329589145464       -0.54306352656810        0.04223250499590
C            5.59280121001366       -1.58885422288660       -0.14845996909992
C            6.26909454641876       -2.91425997404424       -0.31327906337527
C            4.20479799586410       -1.46636348107178       -0.17951470187549
C            3.46977155026979       -2.65319777301300       -0.26143175177085
N            2.93185403128915       -3.67456634974279       -0.29442215929781
C            1.54333070099465        1.02469158204518        0.75119073815897
C            0.19035604318089        1.19828125569935        0.73512616930566
H           -7.74538336078908       -2.06115362294438       -0.67072059645636
H           -8.13480292055725       -3.44852994278057        0.37669603682404
H           -7.75885559907807       -1.86819143465557        1.10773455255979
H           -3.79957691125046       -3.69810027385618        0.48075949810353
H           -1.78312876631044       -2.27515779862258        0.33482798944633
H           -6.35178036643314       -0.27321342297954        0.05131634192862
H           -6.01938260247928        2.41529513706402       -0.21401859732223
H           -5.10162730473000        4.69450990158245       -0.48289610264088
H           -2.68174343557976        5.06493548469230       -0.61116405247122
H           -1.09807136018822        3.18543644359193       -0.43773228479163
H           -0.64042129425945       -1.25709464226190       -1.46490471202889
H            1.76878338888373       -1.56267123770213       -1.44740732365778
H            7.87865132846205        1.37569035274836        0.35193727136073
H            6.74349461047443        2.54480237308140       -0.35764098949932
H            6.72745995248136        2.25707987138237        1.37762658105211
H            5.96235174057653       -3.39005509526415       -1.24383011540254
H            7.34586689927011       -2.76937421374255       -0.31536154599589
H            5.99727636592708       -3.58208541055140        0.50396498275020
H            2.14310529743901        1.63637740813366        1.40685432495043
H           -0.26506671941386        1.93671994235559        1.37791280027887
