  53
        -85.89466377
 C         -7.5247621403       -2.5196330261       -0.0040129089
 O         -6.2023473433       -2.9976038476        0.0356270161
 C         -5.1836496197       -2.0887156086        0.0308474285
 C         -3.8949816141       -2.6445493466        0.0708643018
 C         -2.7631574508       -1.8598679178        0.0611358833
 C         -2.9254462698       -0.4823840631       -0.0013102053
 C         -4.2139096569        0.0882296164       -0.0074799444
 C         -5.3501427193       -0.7135069464        0.0028492084
 C         -4.0320819151        1.5131039660       -0.0088113835
 C         -4.9128410741        2.5864754246       -0.0366064494
 C         -4.3963999697        3.8663921975       -0.0610702379
 C         -3.0203640850        4.0819426959       -0.0781076243
 C         -2.1240489107        3.0303699505       -0.0509505011
 C         -2.6368523567        1.7421317533        0.0058489011
 N         -1.9758835142        0.5278044764        0.0098592350
 C         -0.5958270176        0.3477947640        0.0112260356
 C         -0.0022833691       -0.5609732526       -0.8649374007
 C          1.3634894016       -0.7428766386       -0.8586984329
 C          2.1726959497       -0.0089613847        0.0077159884
 C          3.6252665204       -0.1921422424        0.0027907272
 C          4.4993645925        0.9049403207       -0.0183348529
 C          4.0150415311        2.2276996813       -0.0920010901
 N          3.6733553080        3.3202842160       -0.1758281996
 C          5.8890912931        0.6825596900       -0.0221426111
 C          6.8554529214        1.8173834755       -0.0438575377
 N          6.3943406862       -0.5381536415       -0.0094706042
 C          5.6042349663       -1.5968956091        0.0094279465
 C          6.2617250274       -2.9346525565        0.0272958416
 C          4.2024790917       -1.4705750606        0.0177420937
 C          3.4082158576       -2.6336742219        0.0951011029
 N          2.8063677022       -3.6071352130        0.1795665346
 C          1.5778587186        0.9038984814        0.8777244276
 C          0.2105146993        1.0738806719        0.8877815506
 H         -7.7151400249       -1.9392095554       -0.9128266196
 H         -8.1578466530       -3.4053026378       -0.0034132073
 H         -7.7579458042       -1.9080460210        0.8738430421
 H         -3.8162299699       -3.7189420624        0.1148991760
 H         -1.7852732094       -2.3123262895        0.1158674816
 H         -6.3245928346       -0.2529951698       -0.0038008966
 H         -5.9791291926        2.4184999088       -0.0448968719
 H         -5.0638510701        4.7147629301       -0.0795717718
 H         -2.6438927032        5.0931691879       -0.1181821368
 H         -1.0607104928        3.2116812906       -0.0890323674
 H         -0.6171192318       -1.1057498040       -1.5640130248
 H          1.8116505964       -1.4334756213       -1.5573371014
 H          6.6744838200        2.4549869130       -0.9085699798
 H          6.7360224070        2.4332282585        0.8472643345
 H          7.8686270522        1.4281247232       -0.0813977006
 H          5.9425745723       -3.5274529984       -0.8297743021
 H          7.3403076267       -2.8070668897        0.0016957256
 H          5.9805259952       -3.4823417472        0.9269217062
 H          2.1880827582        1.4572530328        1.5758534181
 H         -0.2440686510        1.7550665034        1.5898848833
