53
 energy: -85.932763561123 gnorm: 0.000108772077 xtb: 6.7.1 (edcfbbe)
C           -7.52916367647724       -2.52460747507186       -0.00541099238184
O           -6.20289221367626       -3.00216609968496        0.02490019806529
C           -5.18208306923456       -2.08975498432293        0.02199218039164
C           -3.89320067976254       -2.64502950913441        0.06034037840270
C           -2.76215685771786       -1.85840264115565        0.05419399941976
C           -2.92576054992993       -0.48053484160037       -0.00356076975220
C           -4.21552641572954        0.08857386066168       -0.01112880519458
C           -5.35097446022043       -0.71510961466380       -0.00371130123904
C           -4.03549060914310        1.51387715535316       -0.00954891481939
C           -4.91772599800667        2.58677405232416       -0.03776589265395
C           -4.40280015534209        3.86763097975669       -0.05684225080219
C           -3.02649181000610        4.08496919863944       -0.06681533819881
C           -2.12897905060293        3.03410740217681       -0.03945090618343
C           -2.64028324110442        1.74448207971313        0.00947953039144
N           -1.97737047778206        0.53063835331573        0.01207504346577
C           -0.59404961015918        0.35145623794107        0.01424166785765
C            0.00225174909426       -0.53833777896270       -0.87932014418006
C            1.36860749490007       -0.72076916219973       -0.87184115195679
C            2.17476323539019       -0.00535645499267        0.01286891359620
C            3.62852986245100       -0.19003688929438        0.00731368071301
C            4.50437162863762        0.90565406871027       -0.02913206518570
C            4.01816674130236        2.22653382123045       -0.11559533075684
N            3.66986340882037        3.31650356315211       -0.21130076935447
C            5.89487236043047        0.68099955928833       -0.03579195303223
C            6.86491610339021        1.81207318822067       -0.07392105884768
N            6.39659676993692       -0.54160117318105       -0.01208106164642
C            5.60559649562638       -1.60010597640491        0.02053271218712
C            6.26233478841474       -2.93788130221064        0.04695924250144
C            4.20313555941829       -1.46984765887705        0.03384550405780
C            3.40306493698433       -2.62737859215273        0.12759518139474
N            2.79448247909494       -3.59592681530627        0.22751901121165
C            1.57713370758526        0.88926360270663        0.89978099008583
C            0.20901892383337        1.05937768434330        0.90843495207794
H           -7.72338725165370       -1.94137670487369       -0.91105710330521
H           -8.15913088870483       -3.41275928996655       -0.00498124695335
H           -7.75562546060648       -1.91803861288923        0.87715744764232
H           -3.81284598452140       -3.72007132454096        0.10038054199848
H           -1.78419500788213       -2.31121272783854        0.10602880798937
H           -6.32668980210704       -0.25778898604574       -0.01089976355119
H           -5.98401882199062        2.41814061196756       -0.05002778932316
H           -5.07183059180763        4.71528139064592       -0.07591913954818
H           -2.65127186965416        5.09729207403111       -0.10089337014856
H           -1.06559021233731        3.21727532102687       -0.06989217687978
H           -0.60920117977644       -1.07073473371428       -1.59117631280262
H            1.81950183051090       -1.39688538365024       -1.58344370299472
H            6.68509772047805        2.43729493540442       -0.94764062718771
H            6.74751469758681        2.44061086289549        0.80830589782963
H            7.87689359853517        1.41912920210296       -0.10671293857919
H            5.95059117283559       -3.53093564063784       -0.81206222651927
H            7.34086074055978       -2.81137309733991        0.02998914468790
H            5.97260598739799       -3.48419195225950        0.94394300015761
H            2.18540157770369        1.42876178253323        1.61095402005711
H           -0.24644687747063        1.72799940297733        1.62231105329483
