53
 energy: -85.932771072115 gnorm: 0.000095501077 xtb: 6.7.1 (edcfbbe)
C           -7.39835741783910       -2.58499360848344       -0.04100298355929
O           -6.06871200383964       -3.05240265111822       -0.00141693846069
C           -5.05506926315513       -2.13209332426743        0.00812348623354
C           -3.76196140845835       -2.67749180984644        0.04501284129064
C           -2.63707227780420       -1.88205241184069        0.04781936968207
C           -2.81109158770907       -0.50501658970048        0.00049711248404
C           -4.10535670345218        0.05380853045813       -0.00251532164801
C           -5.23456939815816       -0.75864108436419       -0.00426441972448
C           -3.93680464841355        1.48038882743980        0.01170881770647
C           -4.82813688931048        2.54597330702804       -0.00506877509795
C           -4.32411589909271        3.83124595272338       -0.01370643073339
C           -2.94970114297554        4.06004110816362       -0.02542028394107
C           -2.04335744125614        3.01653366312525       -0.00912741649765
C           -2.54349330847479        1.72218571439791        0.03082758072020
N           -1.87065619282246        0.51365182258398        0.02337069244465
C           -0.48602761329013        0.34528029078103        0.02232822143998
C            0.11514458541485       -0.54002225332596       -0.87250628031337
C            1.48270801790414       -0.71360537539511       -0.86680205914875
C            2.28515520152936        0.00896036388312        0.01514523089443
C            3.74047550332796       -0.16546443489630        0.00734459690270
C            4.60781552595693        0.93567473571838       -0.05254626345441
C            4.10940333621877        2.25062918985073       -0.15787937611641
N            3.74832133473729        3.33517284329430       -0.26661614775197
C            5.99980500102819        0.72092381851623       -0.06249343191726
C            6.96108439954965        1.85758552313383       -0.13777921570116
N            6.51044341989342       -0.49723756469867       -0.01284093863523
C            5.72735096680939       -1.56059469897529        0.04484069367123
C            6.39394792230572       -2.89238117754952        0.10493282337519
C            4.32402878315405       -1.44037013752188        0.05588116355077
C            3.53022173644627       -2.60053494251768        0.16847322726241
N            2.92388504844097       -3.56902440791127        0.28133361208017
C            1.68330963508156        0.90051003492378        0.90200218501037
C            0.31380218302774        1.05924588238787        0.91468190192643
H           -7.58735478987199       -1.99377242076131       -0.94257324957440
H           -8.02118745528827       -3.47802956354549       -0.05676380233559
H           -7.63927658417675       -1.98956689213829        0.84530912203357
H           -3.67317508322977       -3.75215850906786        0.07611111529794
H           -1.65591786081863       -2.32800513068603        0.09827185093080
H           -6.21379654676687       -0.30885410531378       -0.00866709611093
H           -5.89298245193349        2.36833484694730       -0.01645670661972
H           -5.00027001600139        4.67338018947120       -0.02331185152961
H           -2.58296936330553        5.07569426552464       -0.05199721939871
H           -0.98173927840943        3.20924728753776       -0.04115876607593
H           -0.49352440090704       -1.07638063783820       -1.58372331265258
H            1.93727979097873       -1.38827070717920       -1.57750070730773
H            6.79998985403645        2.54895244948886        0.68834477018019
H            7.97683529396996        1.47476438432749       -0.10218273221849
H            6.81430207054876        2.41393728789121       -1.06313824455586
H            7.47075406909537       -2.76023331115222        0.05445906655192
H            6.13333860771947       -3.40255301566057        1.03182543079301
H            6.06242646981875       -3.52248391628785       -0.71937234658987
H            2.28975966958506        1.44629305571478        1.60999255670482
H           -0.14491639981114        1.72382030676350        1.63019584852279
