  132
       -192.42420544
 C        -11.2921687458       -4.4380096274        0.0775803687
 C        -10.9369217406       -3.3543642380        1.1053436337
 C        -11.1826515844       -3.8834399355        2.5250588752
 C        -11.8640804688       -2.1572305377        0.8762622680
 C         -9.4664919683       -2.9965723101        0.9528260149
 C         -8.4957851025       -3.9836314581        1.1517676427
 C         -7.1582230924       -3.6939172089        1.0369799492
 C         -6.7415660345       -2.4047751854        0.6999391200
 C         -7.6799016816       -1.3878067773        0.4546258730
 C         -9.0306364085       -1.7308363914        0.6144910685
 B         -7.1252256970       -0.0042364221        0.0337417332
 C         -7.7981706271        1.3103640529       -0.4333490692
 C         -9.1635982883        1.5016030047       -0.6913965587
 C         -9.7099665560        2.7087536042       -1.0796873639
 C        -11.1940315517        2.8975314095       -1.3540797913
 C        -12.0023233446        1.6137376109       -1.1450333456
 C        -11.3789346865        3.3477099785       -2.8099280268
 C        -11.7464201979        3.9691915589       -0.4038910367
 C         -8.8419158579        3.7958998139       -1.2227110522
 C         -7.4925879675        3.6569495523       -1.0074653447
 C         -6.9619541517        2.4230793388       -0.6265855034
 O         -5.6072024319        2.4138285561       -0.4805199948
 C         -4.9319036647        1.2813609115       -0.1880567845
 C         -3.5451826116        1.3611591690       -0.1549191873
 C         -2.8033648662        0.2218184915        0.1334469066
 N         -1.3921245162        0.2854485939        0.1425251208
 C         -0.7003639299        0.4877405948       -1.0514048503
 C         -1.3691108665        0.6468994990       -2.2562601025
 C         -0.6739594672        0.8805554914       -3.4352429218
 C          0.7007914893        0.9633921458       -3.4155229135
 C          1.3856162275        0.7730611755       -2.2230079092
 C          0.7062852094        0.5047086912       -1.0437061878
 N          1.3961155181        0.2766132310        0.1467287328
 C          2.8066210015        0.1984111455        0.1236520612
 C          3.5665245080        1.1915220710        0.7301796998
 C          4.9529809127        1.1111660028        0.6837508849
 C          5.6022142859        0.0424836903        0.0461245215
 C          4.8045631681       -0.9464315252       -0.5506292733
 C          3.4179967964       -0.8720451551       -0.5188522224
 O          5.3536075482       -2.0068289266       -1.1824772882
 C          6.6991800969       -2.2245094477       -1.1801248604
 C          7.0958796103       -3.4137763390       -1.7941431790
 C          8.4233173890       -3.7651805540       -1.8335213168
 C          9.4021672002       -2.9558641686       -1.2477238022
 C         10.8581377765       -3.3936739802       -1.2913176225
 C         11.7949503465       -2.4007773282       -0.5972810845
 C         10.9955976012       -4.7515181447       -0.5889205027
 C         11.2964730477       -3.5192326635       -2.7571319177
 C          8.9873298154       -1.7799599151       -0.6546540546
 C          7.6504015320       -1.3582426084       -0.6152595360
 B          7.1230698289       -0.0383675905       -0.0034016511
 C          7.8244036516        1.2202118765        0.5607738993
 C          9.1969868260        1.5015932315        0.5026741930
 C          9.7700499922        2.6346549260        1.0449933557
 C         11.2617975020        2.9227746732        0.9754770540
 C         11.4813679432        4.2313020836        0.2039358291
 C         11.8127374150        3.0604164739        2.4015290196
 C         12.0457263014        1.8132876697        0.2683468120
 C          8.9219773784        3.5471089219        1.6809972624
 C          7.5663314254        3.3326771313        1.7409236331
 C          7.0083916300        2.1843242446        1.1763476594
 O          5.6508163109        2.1067025476        1.2732530804
 C          0.7047248845        0.1004513135        1.3444800496
 C          1.3746189733       -0.1243614220        2.5380120020
 C          0.6799886597       -0.2694094844        3.7315436268
 C         -0.6947623624       -0.1834176577        3.7394366641
 C         -1.3805953785        0.0107294374        2.5479311541
 C         -0.7020410562        0.1242423055        1.3435502967
 C         -3.4356677150       -0.9859402312        0.4041003011
 C         -4.8231697964       -1.0496081127        0.3812832213
 C         -5.6032935381        0.0777649137        0.0788014470
 O         -5.3893598807       -2.2473998138        0.6429590220
 H        -12.3452609050       -4.6992326939        0.1564076424
 H        -11.1002029644       -4.0767992037       -0.9305959286
 H        -10.7053718489       -5.3387774674        0.2335358719
 H        -10.9107854316       -3.1282526720        3.2595695538
 H        -10.5972701185       -4.7768025891        2.7226359986
 H        -12.2340271661       -4.1304554118        2.6560969403
 H        -11.6610314181       -1.3633897910        1.5912383588
 H        -11.7588292146       -1.7676012933       -0.1333603275
 H        -12.8977284922       -2.4704906756        1.0075723494
 H         -8.7861402520       -4.9906049202        1.4095872525
 H         -6.4064640981       -4.4491203623        1.2084409238
 H         -9.7524612101       -0.9477142775        0.4751200762
 H         -9.8033231928        0.6447485895       -0.5911199251
 H        -11.6671198997        0.8268597529       -1.8167224586
 H        -13.0518174826        1.8091572215       -1.3555284518
 H        -11.9263216128        1.2664316703       -0.1173837697
 H        -10.9706052276        2.6016137596       -3.4883364468
 H        -12.4363227588        3.4748402805       -3.0320037029
 H        -10.8756974709        4.2915094805       -2.9995851422
 H        -12.8128659279        4.1042908006       -0.5710414695
 H        -11.5940786382        3.6686359207        0.6307224689
 H        -11.2550389094        4.9259543335       -0.5565019127
 H         -9.2214198285        4.7621541632       -1.5177234386
 H         -6.8178850537        4.4895493812       -1.1358673418
 H         -3.0546405808        2.2990920383       -0.3603147801
 H         -2.4452152652        0.5857121121       -2.2800151237
 H         -1.2206211096        1.0028428125       -4.3575157021
 H          1.2544938916        1.1671554871       -4.3189610297
 H          2.4622338375        0.8326002614       -2.2136532348
 H          3.0905136282        2.0243384347        1.2224868331
 H          2.8253633116       -1.6402740003       -0.9891017662
 H          6.3374492888       -4.0480978987       -2.2270233162
 H          8.6983975588       -4.6900300416       -2.3171759975
 H         11.7618844677       -1.4274862754       -1.0809867048
 H         12.8175242645       -2.7680949598       -0.6546921409
 H         11.5375623594       -2.2892386196        0.4533988897
 H         10.3994788644       -5.5145741644       -1.0809152358
 H         12.0345553688       -5.0741857370       -0.5966683150
 H         10.6652215886       -4.6747715933        0.4448181539
 H         11.1800675815       -2.5651196742       -3.2669596479
 H         12.3420148498       -3.8149047950       -2.8118367970
 H         10.7050733538       -4.2616318894       -3.2853086770
 H          9.7115225920       -1.1470323238       -0.1758547849
 H          9.8174716997        0.7921093147       -0.0129965814
 H         12.5442489384        4.4528447621        0.1358195338
 H         10.9900759593        5.0668909914        0.6943253621
 H         11.0811043725        4.1447796554       -0.8039793895
 H         11.6307048421        2.1471680822        2.9642544143
 H         11.3439780193        3.8853107709        2.9303969849
 H         12.8851965771        3.2407651157        2.3729247539
 H         11.9404510251        0.8659683072        0.7917199275
 H         11.7146437930        1.6946212856       -0.7606432232
 H         13.1026404321        2.0712940735        0.2520478754
 H          9.3225386351        4.4455637787        2.1248703479
 H          6.9087855549        4.0464058014        2.2133235764
 H          2.4507418960       -0.1909475799        2.5392905316
 H          1.2267268337       -0.4418099921        4.6456976415
 H         -1.2477227424       -0.2727665698        4.6616845274
 H         -2.4571937485        0.0721559807        2.5580803163
 H         -2.8594232715       -1.8685508069        0.6309131281
