132
 energy: -192.421914766133 gnorm: 0.000103143155 xtb: 6.7.1 (edcfbbe)
C          -11.53891306717507       -4.28430017202980        0.03635988135070
C          -11.02053028673496       -3.29534991462879        1.09106659328328
C          -11.14396998518309       -3.91707292748509        2.49034011920279
C          -11.90434627252628       -2.04525986329604        1.04682263405563
C           -9.55476836845122       -2.99162957197422        0.81192212402053
C           -8.62656358613872       -4.03452158430970        0.83083529920446
C           -7.28554896965594       -3.79294714890561        0.61929400090535
C           -6.83663235351090       -2.50089960489199        0.36707940751886
C           -7.73506319623907       -1.42222168788139        0.28919350387807
C           -9.08425726350355       -1.71918995557858        0.53982719774416
B           -7.14331762383596       -0.02810350340113       -0.02924408265602
C           -7.77682628886958        1.34623104042206       -0.35295867651909
C           -9.13285126748223        1.59967758546503       -0.61427823082637
C           -9.64174714849693        2.85620656796946       -0.89109677468123
C          -11.11457256512000        3.11245393889900       -1.18081686101779
C          -11.95655708835114        1.83338062257891       -1.14968631547781
C          -11.24827277617784        3.73661836856143       -2.57803973155374
C          -11.67356533365427        4.07850738328162       -0.12564098676785
C           -8.74725631082882        3.92831894206416       -0.90349689094752
C           -7.40085713356161        3.72993671150236       -0.68148217340516
C           -6.91279562825764        2.45305270299522       -0.42465195264371
O           -5.54886961503911        2.39037804707690       -0.26409884683017
C           -4.90741693142592        1.20331360922508       -0.14049625360183
C           -3.51920351870207        1.23737069674866       -0.12915227936870
C           -2.81812479334847        0.04093013870958       -0.01400775016221
N           -1.39236517503241        0.06116790640596       -0.01132387264094
C           -0.71799121474988        0.29702422556704       -1.18294335360700
C           -1.39495437703647        0.50172064262312       -2.39036453118497
C           -0.70211750697959        0.77448955859455       -3.54696790958238
C            0.69554832840510        0.85693977886537       -3.52911183243361
C            1.38764582927354        0.63120258951541       -2.36232449938040
C            0.70953019686667        0.32635523662470       -1.17650268546646
N            1.38491947492106        0.05966461955755       -0.01245852015182
C            2.81039721494508        0.03551536590424       -0.01957496292530
C            3.51560545093189        1.08469804221635        0.56160329610491
C            4.90378745543129        1.04908952413444        0.54816492261062
C            5.61073530534884       -0.01832891288001       -0.03206398368086
C            4.85810785997195       -1.05735633705021       -0.60633083217140
C            3.46968275369631       -1.03931659084909       -0.60782906360547
O            5.45650539786592       -2.12259095574896       -1.19133700441372
C            6.81884568508689       -2.29672318281730       -1.13972261277184
C            7.26258641594902       -3.49416235965256       -1.69101825929177
C            8.60348519504827       -3.81468430105607       -1.67135221534563
C            9.53640561143030       -2.95687224679178       -1.08548956710456
C           11.00300617014916       -3.36468990306708       -1.05053548818433
C           11.89147448212697       -2.32669587530995       -0.35837733549249
C           11.13642639413570       -4.69062562740897       -0.28651980855313
C           11.50744405060233       -3.54124023151096       -2.49053565945238
C            9.07038191229304       -1.76435597365317       -0.56102361687017
C            7.72166731230393       -1.37434257917272       -0.58217920062768
B            7.13639249559569       -0.04838659736223       -0.03796590040623
C            7.77747148770263        1.25292308061798        0.50259693059653
C            9.14056513311347        1.58847651045595        0.47277053732171
C            9.65780836670998        2.75988641161242        0.99675229725384
C           11.13979613927217        3.10691339974524        0.95489771577514
C           11.32444194040937        4.43102347174694        0.19845391059470
C           11.65915389279300        3.25295436750111        2.39303055622122
C           11.98027023601601        2.03725420794263        0.25103502871510
C            8.76399759185290        3.65334648937917        1.59023550936275
C            7.41130082631531        3.38740014978483        1.61767839423883
C            6.91599951128638        2.20989620584735        1.06731130313304
O            5.54812141137098        2.09013481127809        1.12801072543260
C            0.71065763836656       -0.19548026698260        1.15508322792100
C            1.38813374073529       -0.49568095298895        2.34206208448909
C            0.69574442903248       -0.71386874589422        3.51041299459405
C           -0.70185348162038       -0.63081232811054        3.52774530165926
C           -1.39434525636343       -0.36447604433566        2.36973399908598
C           -0.71685895570447       -0.16477840974202        1.16137987455973
C           -3.48177323355019       -1.17705628459794        0.09736727809794
C           -4.87027937505287       -1.18748627065422        0.09857623577228
C           -5.61796199038027       -0.00369218254935       -0.02364742159253
O           -5.47422762256203       -2.39455077283820        0.21733371016572
H          -12.58859124406285       -4.50822903347184        0.21621311509579
H          -11.44244844144308       -3.85660666371711       -0.95979528079470
H          -10.98288327774334       -5.21758465422878        0.06087391672375
H          -10.74712466379227       -3.23570136912390        3.24070440236679
H          -10.59676908950351       -4.85339404063958        2.55790836296176
H          -12.18859333513286       -4.11597732574692        2.72180909958278
H          -11.59224129000561       -1.31976172444641        1.79477549604864
H          -11.87629453632415       -1.58196289633736        0.06356104763669
H          -12.93550793887401       -2.32308954226730        1.25715722006266
H           -8.94205954581402       -5.04806458147488        1.02606524895953
H           -6.56313393524555       -4.59535937445561        0.65622055765533
H           -9.77072132072174       -0.89148044130187        0.53377861748882
H           -9.79242655057054        0.75036973230037       -0.61277037749886
H          -11.61322371380986        1.12183099579947       -1.89739974262732
H          -12.99438296227373        2.07752744348156       -1.36891499800171
H          -11.92255560218947        1.36714061698472       -0.16802189401097
H          -10.82186737868343        3.07318034960104       -3.32823124194111
H          -12.29731307297379        3.90001387422708       -2.81716873137967
H          -10.73383838225564        4.69189615744011       -2.63684697359463
H          -12.72794589895123        4.27080825350915       -0.31440326192980
H          -11.57337965975390        3.64818255612862        0.86899947716321
H          -11.14644097237166        5.02865702416158       -0.13956700263922
H           -9.09368702768586        4.93114871758798       -1.10165283342500
H           -6.70402117470899        4.55485849188639       -0.71352439821302
H           -3.00097860476058        2.17939502702751       -0.21228100123603
H           -2.47121892874693        0.44504268020052       -2.40213416848087
H           -1.23958866137017        0.93105488953929       -4.46836606135380
H            1.23320361213797        1.09119272900931       -4.43377991332876
H            2.46406451458287        0.68565084745631       -2.34877076735886
H            3.00039136670746        1.91801117380318        1.01219486350049
H            2.91902357523253       -1.85174966138473       -1.05464342191354
H            6.53576609810761       -4.16670769705962       -2.12286794819660
H            8.91512882757974       -4.75137353235407       -2.10768041123912
H           11.86261930869177       -1.37520342177218       -0.88376060745474
H           12.92211284641477       -2.67664642930936       -0.35512270913254
H           11.58435888130376       -2.17644780520668        0.67420852118869
H           10.57690079823918       -5.48626327881430       -0.77080956430577
H           12.18120209736658       -4.99114209986876       -0.23637376287886
H           10.75986155198832       -4.57864009523092        0.72860732169051
H           11.39798541130136       -2.61028868250552       -3.04369126981738
H           12.55929753311353       -3.82042649553290       -2.48813085617829
H           10.95115175948922       -4.31472033326194       -3.01311357741331
H            9.76218822022529       -1.08945462862377       -0.09008285478093
H            9.80139088425186        0.88722233441529       -0.00408220571481
H           12.38078044884407        4.68675184128784        0.14267939157692
H           10.80320257691451        5.24673182979600        0.69198019748167
H           10.93637138665402        4.34217038246713       -0.81462947635796
H           11.51392656226830        2.32384298638468        2.94101689731035
H           11.13851601528859        4.04563136866065        2.92355019175218
H           12.72170667013096        3.48792973515312        2.38626745922348
H           11.91518943690383        1.08454427881114        0.77093205656949
H           11.66096154047548        1.90617291066203       -0.78048026540958
H           13.02448839667947        2.34423603881095        0.24342376186348
H            9.11605687048615        4.57552644879117        2.02673216237520
H            6.71523526896536        4.08819192060479        2.05532669550767
H            2.46445976295455       -0.55175527780838        2.32939788172899
H            1.23341483100523       -0.94294779505103        4.41637967584923
H           -1.23932664201209       -0.78201356973941        4.45005435083590
H           -2.47067111137560       -0.30804730629835        2.38040249195413
H           -2.93445059914797       -2.10211991610624        0.18434775400124
