92
 energy: -145.332744573954 gnorm: 0.000110596281 xtb: 6.7.1 (edcfbbe)
C            0.50960402655129       -3.43096982589923        1.00473417063969
C            0.37865605985647       -2.32137540770895       -0.05527595229962
C            0.42306032437515       -2.92794362930488       -1.47017746957466
C            1.53945532226014       -1.35893404478246        0.08675093445311
C            2.83043679142896       -1.83092738942980       -0.07471016743198
C            3.93797010671932       -0.99256220718330       -0.00050510600187
N            5.22263015005234       -1.51051036116125       -0.17445048140690
C            5.62278020351288       -2.35545064099034       -1.19263100998215
C            4.90801061145077       -2.82401736544396       -2.28593512662723
C            5.56519629750327       -3.64452125072855       -3.18332234455576
C            6.90408071530974       -3.98628833559618       -3.01030687099594
C            7.62943584224420       -3.49729068290241       -1.94115717385298
C            6.99049214052288       -2.67198048125714       -1.02652457191965
C            7.42965342373332       -1.98003690608011        0.15442671822456
C            8.64279210549117       -1.91378922209649        0.82509150071554
C            8.72161793006204       -1.15257531514412        1.97516200456371
C            7.60634230535494       -0.47783074664500        2.46543835229393
C            6.38758955838381       -0.52996262732868        1.81555247210728
C            6.30945104108023       -1.27118794104989        0.64526298442787
C            3.74027546793866        0.36781031458911        0.22933578557806
C            2.46658308777501        0.85359989956428        0.39883699217685
C            1.35023290676167        0.00568025369483        0.35372438366625
N            0.08794966191935        0.52648725046421        0.54127806878451
C           -0.05376396269974        1.91719049521481        0.80499933421894
C            0.36142244380313        2.43974812581664        2.03211995693022
C            0.20908419638292        3.80194801589984        2.25652756676575
C           -0.33170393482327        4.63202242434085        1.29126109516655
S           -0.48321055087708        6.32788644633525        1.72345835961831
C           -1.11964614363484        7.07085456613571        0.25435854829156
C           -1.28035254025588        8.44665333903373        0.29431140127246
C           -1.77644929928878        9.12980376507634       -0.80436325473872
C           -2.11255887880838        8.42130415438065       -1.95047680983235
C           -1.94825520908108        7.05554019908295       -1.99498390398021
C           -1.45166575450564        6.33581089965897       -0.89278741795267
C           -1.30660553994699        4.89934548634688       -1.03119256463804
O           -1.66862888007273        4.33046469849611       -2.10635715275603
C           -0.74569719124847        4.12398368209324        0.03853615772783
C           -0.59710954443119        2.73359427931103       -0.16291386749500
C           -1.04232704367435       -0.25671093787043        0.44240221703694
C           -2.30390828748075        0.30785423531451        0.68122025510456
C           -3.45122063924672       -0.44092555225341        0.58602584496223
C           -3.37091352767397       -1.79306241140941        0.25638556413116
N           -4.52255964019619       -2.57421115422243        0.15129210082525
C           -5.66212392822848       -2.24396585575844       -0.55917514507015
C           -5.92169287504803       -1.13045031597187       -1.34526475632738
C           -7.14784180658711       -1.06200245725072       -1.97969945906987
C           -8.09259566719650       -2.07682594296953       -1.84888105095990
C           -7.82853224693089       -3.20030954314830       -1.08950236784717
C           -6.60452326568767       -3.29081628475318       -0.44180955798473
C           -5.99926168016928       -4.29550717109819        0.38951218540418
C           -6.43313160450035       -5.52203107725644        0.87201225958550
C           -5.59066854341983       -6.24540161471522        1.69411497469028
C           -4.33970651908098       -5.74920862884230        2.05171630987567
C           -3.88646552776567       -4.52996733182488        1.58404754792352
C           -4.71500337765235       -3.81350836437492        0.73192090859422
C           -2.11877271835649       -2.36253714062081        0.04926303146176
C           -0.95158515613218       -1.62491901131360        0.14384295659393
H            0.44701492445463       -3.00091327626513        2.00267825605873
H            1.46179462698670       -3.94539050833335        0.91262666438937
H           -0.28264343548524       -4.16605334330357        0.89461756200096
H            0.35876404059505       -2.13698359832761       -2.21488714472450
H            1.34725374074728       -3.47704256678095       -1.62693294976035
H           -0.40590551649611       -3.61234404890241       -1.62534984855593
H            3.00148373415204       -2.88175230681525       -0.24825869516940
H            3.87816006247546       -2.54294034005536       -2.44577608071376
H            5.02941799258863       -4.02392552031681       -4.04077198011816
H            7.38125936263593       -4.63225359959768       -3.73184152480994
H            8.67309467387487       -3.74400575643547       -1.81904887832781
H            9.50266539014451       -2.45075934583774        0.45449733857712
H            9.65688918714783       -1.08456373201444        2.51019484026895
H            7.69421611473326        0.09628585521041        3.37578241632470
H            5.52475984982358       -0.01879731385696        2.21458026058627
H            4.58353653431337        1.04040443699495        0.24279640838958
H            2.32123513514407        1.91100472861739        0.54878984511123
H            0.77662079481473        1.79519549321621        2.78997199032673
H            0.50198210384335        4.22817380516451        3.20402951200976
H           -1.00931367434658        8.97715338807095        1.19539505822115
H           -1.89910355762742       10.20089510245110       -0.76156442146651
H           -2.50709880265711        8.94134822299948       -2.81105930115632
H           -2.20141417106779        6.48798930313284       -2.87745798239247
H           -0.90822292195386        2.33147277835571       -1.11474815950234
H           -2.37464435239329        1.34744712448529        0.95643179900075
H           -4.40995511880769        0.00774766026248        0.79327285402932
H           -5.18981801711134       -0.34742592376288       -1.47051764557533
H           -7.37550389610417       -0.20357738795308       -2.59359961533485
H           -9.04001471184293       -1.98480744124685       -2.35835104681509
H           -8.55350153781498       -3.99530968980636       -1.00272498218876
H           -7.41170094045837       -5.89644233641910        0.61279186896990
H           -5.90765993476764       -7.20356542367274        2.07761996056318
H           -3.71134729953410       -6.32681157504737        2.71346992880142
H           -2.92649069003722       -4.14281843332737        1.89044992950701
H           -2.07485423852438       -3.40811743029532       -0.21230333899114
