92
 energy: -145.332745456781 gnorm: 0.000087815209 xtb: 6.7.1 (edcfbbe)
C            0.89242626557117       -3.35289408850756        0.99398892772682
C            0.63436539135056       -2.26096601935051       -0.06103864719213
C            0.72924584181328       -2.85599345874978       -1.47834874529176
C            1.68781981689375       -1.18109585094694        0.07348599946251
C            3.02010405568363       -1.51392305291590       -0.09900964508457
C            4.03351668162539       -0.56356536962823       -0.03093930547829
N            5.36421367038699       -0.94307649872317       -0.21633713187680
C            5.84318629089117       -1.73541259021639       -1.24264999423543
C            5.17316359085144       -2.26977259398931       -2.33409564509602
C            5.90606365722566       -3.01101327204668       -3.24173594971135
C            7.27473469426035       -3.21120656863096       -3.08031226030990
C            7.95278136165391       -2.65580679276791       -2.01254102660085
C            7.23768361855207       -1.90797879325387       -1.08768232976181
C            7.61039782102084       -1.18141008714013        0.09532392435356
C            8.81438731202046       -0.99345407544103        0.75938856696947
C            8.82098161201529       -0.23570565940256        1.91442560874817
C            7.64483623510622        0.31638053325844        2.41583183796704
C            6.43392873510300        0.14187615720285        1.77266454088459
C            6.42573645988068       -0.59642743166471        0.59798078317170
C            3.69538420390175        0.76792400513304        0.20389358707992
C            2.37870897425319        1.11662615093489        0.38251342767904
C            1.35762014189716        0.15586599648531        0.34340816541309
N            0.04854474876475        0.54041452417296        0.53945922279071
C           -0.24086303424380        1.90937822774763        0.79542575381824
C            0.12718695036169        2.48532129768729        2.01369090865156
C           -0.17547151403887        3.82338844841706        2.23090828017975
C           -0.81899023360081        4.57921614545590        1.26758362502724
S           -1.15693060755320        6.25009993863714        1.69101152038468
C           -1.91073778276778        6.89938985900230        0.23302895180360
C           -2.24375434544502        8.24392761270453        0.27317999377970
C           -2.84133001463454        8.85418442737698       -0.81784720097928
C           -3.10421990324237        8.10421910168752       -1.95669081623124
C           -2.76937849648444        6.76999306120971       -2.00129760779991
C           -2.16743645006742        6.12329701376154       -0.90634741735052
C           -1.84771785892079        4.71522153766206       -1.04315157983067
O           -2.14972495483906        4.10182514889268       -2.11242357499906
C           -1.18720236728549        4.01783259997727        0.02337660028340
C           -0.88346147753397        2.65202105405934       -0.17121012794566
C           -0.99287187804591       -0.35908206633104        0.45230151987519
C           -2.30479666766916        0.06807138404968        0.70503869977602
C           -3.36686576922865       -0.79841181956606        0.62103895473682
C           -3.14670369172875       -2.13443779346861        0.28952078268921
N           -4.21034456930041       -3.03292213459131        0.19589550930602
C           -5.38584632597877       -2.82455915968008       -0.50201410590628
C           -5.76818970822567       -1.74595547822036       -1.28665842419980
C           -7.00164653034463       -1.80680739477524       -1.90752981863693
C           -7.83437078643622       -2.91395107288448       -1.76481046466482
C           -7.44685042907429       -4.00199632869755       -1.00675975480091
C           -6.21307628115460       -3.96328634600055       -0.37256795361372
C           -5.49765353351402       -4.89741709194340        0.45354221315359
C           -5.79668297324037       -6.16073593675519        0.94342152000839
C           -4.87466607737115       -6.79032630925820        1.75729894965273
C           -3.67781257395388       -6.16622329244238        2.09941446617184
C           -3.35860208227546       -4.90806550593126        1.62422004088055
C           -4.26656657949880       -4.28386648094543        0.78051126088132
C           -1.84335583175936       -2.56778621057316        0.06950858293771
C           -0.76028660854297       -1.71009804910943        0.15256115849653
H            0.79319264326378       -2.93441586469270        1.99388356110088
H            1.89316234778792       -3.76261016370485        0.89202257559177
H            0.18224741151756       -4.16809950430770        0.88822604444160
H            0.57367652696468       -2.07463897044493       -2.21972117566372
H            1.70515361847901       -3.30298936141764       -1.64577941782286
H           -0.02363346102033       -3.62444654272973       -1.62783475243518
H            3.29983633661926       -2.54044064638493       -0.27694415369684
H            4.11821481461473       -2.09758597412652       -2.48447878288225
H            5.40666189143384       -3.43923472503669       -4.09815298309149
H            7.81168904436245       -3.79868154387116       -3.80979658121087
H            9.01745251361369       -2.79246370799368       -1.89932937777292
H            9.72307709481683       -1.43557552048240        0.38007666308915
H            9.74751501804703       -0.07442444872203        2.44466184257489
H            7.67850351465125        0.89075927386246        3.32962496032245
H            5.52513198576017        0.55818494465847        2.17984393056975
H            4.46334425834193        1.52543352802573        0.21387931001265
H            2.12383786851574        2.15268951063374        0.53526362311383
H            0.62059159124657        1.89773148117317        2.77097869960186
H            0.07864763242690        4.28751806960540        3.17178467981978
H           -2.02639290088583        8.80818929843408        1.16826547732500
H           -3.09821124733262        9.90122421148368       -0.77489126141358
H           -3.57579655324305        8.56667496703096       -2.81133946812658
H           -2.96378309817224        6.17125041494154       -2.87802899160314
H           -1.15849713879608        2.20974860488948       -1.11633224524843
H           -2.48303515429596        1.09411377206543        0.98232781316616
H           -4.36567086063326       -0.45417625363413        0.83854746621430
H           -5.12297268565566       -0.89149037454792       -1.42104523006878
H           -7.32389542857451       -0.97825539292791       -2.52011647821321
H           -8.79169833733732       -2.92213192415325       -2.26389696533964
H           -8.08444216169581       -4.86766933263428       -0.91072844630259
H           -6.73405439966902       -6.63530103562411        0.69623457524734
H           -5.08646410399261       -7.77487656726114        2.14643967514522
H           -2.98559783797867       -6.67362233965189        2.75496884161110
H           -2.44046320357337       -4.42261253734589        1.91864705106879
H           -1.69115602434497       -3.60287421800279       -0.19320253359337
