92
 energy: -145.405404434664 gnorm: 0.000062159062 xtb: 6.7.1 (edcfbbe)
C            0.12502064346986       -3.06394684366360        1.00113590882392
C            0.09257140133110       -1.93902317722965       -0.04950629886202
C            0.06958610483076       -2.53527929461565       -1.46862140870437
C            1.34228193528551       -1.09279949355680        0.09551760088245
C            2.58224463137032       -1.68801818682117       -0.07134857300967
C            3.76457826322142       -0.96393898724463        0.00996426175495
N            4.99717168585860       -1.60600408386434       -0.18086717495792
C            5.32691745778860       -2.41350726837709       -1.24940618308856
C            4.58093376018778       -2.74059577125805       -2.37315005054840
C            5.16374160489405       -3.56398889208597       -3.31679926388469
C            6.46057294025846       -4.04861231713606       -3.15827387531720
C            7.21609537796135       -3.70751602543345       -2.05454653697675
C            6.65242735433623       -2.88079648133610       -1.09144602832668
C            7.13719485377941       -2.32113372514380        0.13864491691332
C            8.33921593680116       -2.41983447579826        0.82706417883269
C            8.47189241376905       -1.74945865878109        2.02641803972734
C            7.42056884410931       -0.99818551311988        2.54797829137176
C            6.21562950514758       -0.88417640954301        1.88221868027611
C            6.08346203770121       -1.53857635117809        0.66567703825955
C            3.70405360675561        0.39990452424807        0.26778289426500
C            2.48109721976297        1.00578820390385        0.45216100720806
C            1.29020631529252        0.27658088799602        0.37865271492651
N            0.07670085736922        0.91919593508185        0.56570056028597
C            0.07420851088689        2.30567780105240        0.86661403967023
C            0.41359215765748        2.74237247503648        2.15036789955278
C            0.42033108364766        4.08681886888279        2.43678093350689
C            0.08650974989862        5.02566809110139        1.45699848779414
S            0.13731824796408        6.70023710514585        1.95112825170120
C           -0.27814310801587        7.57316843456130        0.49176891907129
C           -0.27644080647409        8.96477850396749        0.59365175065522
C           -0.59003245339148        9.74440233005276       -0.49724918574067
C           -0.91274337936729        9.14477059581102       -1.71074352258517
C           -0.91695349900688        7.77361002152197       -1.81142545910931
C           -0.60096903314384        6.95615435692850       -0.71800672219153
C           -0.63789502048446        5.50017846980846       -0.94043543310979
O           -0.96680411434819        5.03911252237875       -2.02178464245830
C           -0.26278196548021        4.60451824038128        0.17241423464815
C           -0.25810774556721        3.23246176700080       -0.09988210261086
C           -1.13077892004338        0.24587656848234        0.46129629387991
C           -2.32992102498713        0.92912026786305        0.68425620630231
C           -3.54558822485818        0.28696088908816        0.60229921525510
C           -3.58977154524219       -1.06502991878438        0.28510978473471
N           -4.81282589908629       -1.74652663599800        0.19914987552842
C           -5.90604950478249       -1.35964098642851       -0.54764447835676
C           -6.05823622094371       -0.26792312911180       -1.39062887879482
C           -7.26567232686037       -0.12347901793101       -2.04592913474832
C           -8.29970010953295       -1.04243462472858       -1.87808872733890
C           -8.14670501576067       -2.14161884188535       -1.05732801317231
C           -6.94179834741407       -2.30929138200169       -0.38740233786993
C           -6.43884449771510       -3.31371247584996        0.50673130064839
C           -6.98083372900587       -4.47282832287326        1.04644247819821
C           -6.21184573519464       -5.22137940076183        1.91468424818989
C           -4.92307421421863       -4.81906216598803        2.25936690227305
C           -4.36182467090568       -3.67044673996582        1.73606163036119
C           -5.12075748608923       -2.92657103748626        0.84323238910416
C           -2.39900744081107       -1.74560154861463        0.06699572433930
C           -1.16625631605476       -1.12028577226780        0.16121575619505
H            0.12228783103470       -2.63673006403786        2.00242609900141
H            1.01781788758976       -3.67293777479380        0.89139780108281
H           -0.74049812488844       -3.71291790203420        0.90068768734168
H            0.06647704544332       -1.73508917116364       -2.20645663175865
H            0.94153555983632       -3.16029123348963       -1.64058474733717
H           -0.81719725149592       -3.14401369929926       -1.62028359862623
H            2.64990416474458       -2.74710564911690       -0.26582137496847
H            3.58326775760682       -2.35253426603799       -2.51422357417655
H            4.60314343408325       -3.83499055161842       -4.19951932410790
H            6.87939317109322       -4.69216247242249       -3.91765904790646
H            8.22667431755800       -4.06984110923457       -1.93993031591990
H            9.14934372715947       -3.01285924831390        0.42994408807351
H            9.39929016299294       -1.81126768041854        2.57631916165690
H            7.55005854750112       -0.49624746315910        3.49575334367645
H            5.40039787097280       -0.31243589893400        2.29989054486444
H            4.61065004010823        0.98382403127455        0.30740685665269
H            2.44698607656998        2.06781247889414        0.63884805848405
H            0.67316961550012        2.01812811748893        2.90755539551902
H            0.68217980156927        4.43719871245355        3.42363902520821
H           -0.02419634675869        9.41592666401466        1.54162228397874
H           -0.58407357030783       10.81997361207134       -0.40678508601092
H           -1.15852595376320        9.75331247898324       -2.56721388023165
H           -1.16422609390203        7.27841238491885       -2.73867113701171
H           -0.52773775628119        2.91850221776830       -1.09778716521052
H           -2.30832145659364        1.97701890229033        0.93949779187269
H           -4.45891622293435        0.82727479293867        0.79780615291765
H           -5.25673075491435        0.44009313045552       -1.53843843271600
H           -7.41043416646693        0.71915728191062       -2.70603666503319
H           -9.22955936918197       -0.89230704968724       -2.40643201913097
H           -8.94294972760992       -2.86104112012556       -0.93816895029121
H           -7.98537538416720       -4.77607448802322        0.79222859567475
H           -6.61364233872827       -6.12754427550451        2.34329109314071
H           -4.35153325283034       -5.41681714645220        2.95441305484120
H           -3.37023377961255       -3.35518519965300        2.02479212935337
H           -2.45419260755183       -2.79237224536425       -0.18847559627202
