  92
       -145.40529483
 C          0.4810419566       -3.4105398104        0.9769060287
 C          0.3395982922       -2.3226845013       -0.1034731221
 C          0.3945883532       -2.9537545592       -1.5063709105
 C          1.4908212055       -1.3449853619        0.0300419044
 C          2.7888212610       -1.8087023071       -0.1105015350
 C          3.8869196483       -0.9622912651       -0.0293521251
 N          5.1830724169       -1.4737425378       -0.1929051398
 C          5.6124636525       -2.2560605932       -1.2445788366
 C          4.9214120056       -2.6782370093       -2.3717073604
 C          5.6027659195       -3.4463436976       -3.2958160009
 C          6.9426135713       -3.7838560330       -3.1152192484
 C          7.6414386686       -3.3484550674       -2.0072592846
 C          6.9781439332       -2.5760029332       -1.0628624509
 C          7.3818309667       -1.9529478382        0.1660180379
 C          8.5761094183       -1.9174378768        0.8737917495
 C          8.6178332262       -1.2246604510        2.0669189916
 C          7.4851640691       -0.5820484742        2.5627513134
 C          6.2860762102       -0.6021424692        1.8772229078
 C          6.2430557020       -1.2804976696        0.6674757483
 C          3.6794175060        0.3918628751        0.2018252788
 C          2.3967424114        0.8689212775        0.3568842396
 C          1.2905222041        0.0169425436        0.2812340332
 N          0.0135920716        0.5323129973        0.4352234838
 C         -0.1375642142        1.9126620469        0.7282278468
 C          0.1146000637        2.3817413556        2.0205952950
 C         -0.0238773591        3.7198790910        2.3026769268
 C         -0.4183087840        4.6199574750        1.3091859081
 S         -0.5544837119        6.2907596518        1.7999104708
 C         -1.0017016694        7.1184686597        0.3236614015
 C         -1.1410435415        8.5034413447        0.4207901844
 C         -1.4894267763        9.2484664274       -0.6836536149
 C         -1.7061118295        8.6200538823       -1.9061913318
 C         -1.5724148329        7.2550442441       -2.0019399437
 C         -1.2183930067        6.4724885360       -0.8946917222
 C         -1.1063654937        5.0195756121       -1.1123640421
 O         -1.3552798385        4.5276000085       -2.2014848332
 C         -0.6806090484        4.1656415188        0.0152218090
 C         -0.5296842050        2.8006898333       -0.2520078823
 C         -1.1144224564       -0.2678382377        0.3387640643
 C         -2.3818643977        0.2903773180        0.5296888420
 C         -3.5210298232       -0.4811094660        0.4646505593
 C         -3.4174273000       -1.8400670154        0.1944755375
 N         -4.5579688252       -2.6548636825        0.1387701498
 C         -5.6921223731       -2.4179880445       -0.6094768896
 C         -5.9710270898       -1.3799008342       -1.4871954872
 C         -7.1920893337       -1.3926264140       -2.1329921762
 C         -8.1165507704       -2.4138545756       -1.9225175338
 C         -7.8363361853       -3.4600695065       -1.0668238278
 C         -6.6153810581       -3.4698267585       -0.4051934577
 C         -5.9989422125       -4.3796026555        0.5186306030
 C         -6.4063998983       -5.5706773242        1.1051485190
 C         -5.5549290123       -6.1967151823        1.9931072567
 C         -4.3171400779       -5.6416473401        2.3113505172
 C         -3.8891826541       -4.4584736590        1.7411410675
 C         -4.7300515753       -3.8371293707        0.8282735295
 C         -2.1591560046       -2.3943044959       -0.0019006777
 C         -1.0012130960       -1.6377610367        0.0775491710
 H          0.4112812494       -2.9619339518        1.9663680192
 H          1.4393965047       -3.9155461227        0.8970901580
 H         -0.3027083401       -4.1568113990        0.8804158859
 H          0.3222744697       -2.1768814970       -2.2651939801
 H          1.3261679199       -3.4935629151       -1.6520190274
 H         -0.4257573221       -3.6509383904       -1.6512029317
 H          2.9705328278       -2.8581893901       -0.2828401121
 H          3.8897805002       -2.4025322243       -2.5307995898
 H          5.0869833791       -3.7887470411       -4.1811663410
 H          7.4395925020       -4.3868905668       -3.8607049085
 H          8.6835935990       -3.5973958609       -1.8749063289
 H          9.4505093904       -2.4262806204        0.4965630182
 H          9.5371964885       -1.1833597593        2.6320697153
 H          7.5453360553       -0.0598641654        3.5065129338
 H          5.4085077322       -0.1147605412        2.2751996999
 H          4.5189824016        1.0685282807        0.2434612209
 H          2.2478065315        1.9245127084        0.5229462138
 H          0.4212837587        1.6873934986        2.7880913640
 H          0.1687752123        4.0950931573        3.2963108484
 H         -0.9692520105        8.9772130735        1.3757826861
 H         -1.5926537809       10.3194087096       -0.5967560964
 H         -1.9780278012        9.2016457000       -2.7734540785
 H         -1.7353866852        6.7381725956       -2.9359655230
 H         -0.7345996913        2.4608747495       -1.2569381571
 H         -2.4746129332        1.3426351759        0.7484906282
 H         -4.4883912013       -0.0359781123        0.6389311560
 H         -5.2543134241       -0.5929486978       -1.6677259059
 H         -7.4349271207       -0.5942392475       -2.8188215130
 H         -9.0614548835       -2.3858716707       -2.4447220101
 H         -8.5468648514       -4.2587081207       -0.9146295084
 H         -7.3724640847       -5.9923534991        0.8715659258
 H         -5.8517348729       -7.1249349549        2.4585306964
 H         -3.6798323873       -6.1454292761        3.0235220284
 H         -2.9374936114       -4.0247191129        2.0096403099
 H         -2.0999699548       -3.4479871089       -0.2260534372
