  124
       -170.87567645
 C          6.1841933697        3.1330083695       -2.9397738996
 C          6.4845136634        1.6467325415       -3.1821371980
 C          7.9358225435        1.3809262951       -2.7723937716
 C          6.3476429251        1.3230447583       -4.6766288040
 C          5.4897576865        0.8152997475       -2.3866223980
 C          4.1260105512        0.9223729180       -2.6887760839
 C          3.1485382138        0.2292026012       -2.0029553579
 C          3.5461329790       -0.5880998828       -0.9542651255
 C          4.9173771213       -0.7443739448       -0.6565332172
 C          5.8787455460       -0.0446193211       -1.3687093431
 C          4.9904555110       -1.6956636257        0.4206971736
 C          6.0500475729       -2.2429969531        1.1278887406
 C          5.8012148579       -3.1443793422        2.1528048988
 C          6.9148878425       -3.7961258907        2.9588430296
 C          8.3080077305       -3.3519202717        2.5038695659
 C          6.7557065635       -3.4207792765        4.4389783863
 C          6.8248541474       -5.3203825008        2.7956279968
 C          4.4707439310       -3.4590617745        2.4575842499
 C          3.3974690801       -2.9289742425        1.7694882514
 C          3.6596905102       -2.0547650360        0.7259222168
 N          2.7965959593       -1.3882954266       -0.1219814572
 C          1.4048310542       -1.3958961520       -0.0545676968
 C          0.6950238559       -2.6029333232        0.0281448845
 C         -0.6715313917       -2.6071266217        0.1611207797
 C         -1.3951405340       -1.4056622562        0.1949576987
 N         -2.7884425876       -1.4152439372        0.2235275014
 C         -3.6101871779       -2.1138761742       -0.6399748288
 C         -3.2961981379       -3.0110586397       -1.6490659249
 C         -4.3345258658       -3.5680548641       -2.3685853349
 C         -5.6793207677       -3.2584304298       -2.1285201164
 C         -6.7510657528       -3.9362227813       -2.9690942080
 C         -6.6552655201       -5.4562888000       -2.7742096997
 C         -6.5294637131       -3.5858705389       -4.4474939932
 C         -8.1664922720       -3.4968194779       -2.5838698799
 C         -5.9794056032       -2.3356539780       -1.1369205091
 C         -4.9555180760       -1.7609998899       -0.3992585455
 C         -4.9352007406       -0.7801214512        0.6534402139
 C         -5.9316809866       -0.0716582057        1.3059329703
 C         -5.5931122022        0.8223756676        2.3124086031
 C         -6.6289229504        1.6623586292        3.0440786116
 C         -6.3352515041        3.1460909807        2.7798547848
 C         -6.5514871445        1.3748781984        4.5501107551
 C         -8.0588114272        1.3711369578        2.5797491639
 C         -4.2436790122        0.9549118729        2.6647286511
 C         -3.2318833655        0.2540481727        2.0387072128
 C         -3.5784617464       -0.5992094325        1.0006464309
 C         -0.7195480077       -0.1740423174        0.1023407514
 N         -1.3585047316        0.9891841330        0.0273621304
 C         -0.7128883510        2.1508487297       -0.0515492026
 C         -1.5108247355        3.3457367351       -0.3109111742
 C         -1.0367256857        4.3785872816       -1.1214657306
 C         -1.8203980787        5.4891085719       -1.3630847380
 C         -3.0882116654        5.5857527242       -0.8104564739
 C         -3.5761707997        4.5515056123       -0.0283222487
 C         -2.8001261034        3.4356104040        0.2162833371
 C          0.6906771668        2.1586938239        0.0955025525
 C          1.4817620041        3.3654566070        0.3192581429
 C          1.0036770291        4.4180329520        1.1014125461
 C          1.7841054521        5.5366705057        1.3144650993
 C          3.0523254219        5.6220751253        0.7609504533
 C          3.5434168925        4.5696885698        0.0054120223
 C          2.7707054603        3.4456155383       -0.2104845103
 N          1.3455446453        1.0008513721        0.0512665485
 C          0.7165587697       -0.1693471531        0.0102393266
 H          5.1735893470        3.3887714863       -3.2463583650
 H          6.2886824787        3.3647932976       -1.8817100634
 H          6.8799703685        3.7541282971       -3.5001368485
 H          8.2035400614        0.3395483794       -2.9360035836
 H          8.1007987772        1.6325328231       -1.7273157574
 H          8.6008913691        1.9972738560       -3.3740599166
 H          7.0771888177        1.8908581752       -5.2504067763
 H          6.5224908234        0.2629049915       -4.8485303330
 H          5.3580074393        1.5699186493       -5.0501966737
 H          3.8119090332        1.5714622741       -3.4920840297
 H          2.1114432627        0.3235258040       -2.2827414117
 H          6.9161730961       -0.1869048703       -1.1166643541
 H          7.0527053267       -1.9511388070        0.8643446012
 H          8.4358530101       -2.2788123201        2.6253589813
 H          9.0627687245       -3.8497958852        3.1091705247
 H          8.4835414652       -3.6176833264        1.4640024461
 H          6.7971365098       -2.3401097884        4.5585318144
 H          5.8079597206       -3.7708298724        4.8383179996
 H          7.5569952603       -3.8648122074        5.0259848330
 H          6.9136294162       -5.5914399716        1.7455329454
 H          7.6284097139       -5.8046601717        3.3465187928
 H          5.8789074573       -5.7043728138        3.1670812498
 H          4.2608372000       -4.1423594508        3.2662911508
 H          2.3864959767       -3.1824010880        2.0503231206
 H          1.2415224181       -3.5314510423       -0.0295926346
 H         -1.2091250852       -3.5384138202        0.2502825479
 H         -2.2720382421       -3.2608485224       -1.8810489382
 H         -4.0844340443       -4.2681846048       -3.1509886766
 H         -7.4280776806       -5.9578492283       -3.3528944098
 H         -5.6898372159       -5.8378495270       -3.0944014825
 H         -6.7904670120       -5.7094123392       -1.7246375981
 H         -5.5638587176       -3.9381489850       -4.7992214879
 H         -6.5698912469       -2.5076324217       -4.5877042164
 H         -7.3025754692       -4.0436827195       -5.0610266441
 H         -8.2990340147       -2.4279829149       -2.7348247374
 H         -8.3834741064       -3.7413904348       -1.5465733212
 H         -8.8898500411       -4.0159576163       -3.2094748080
 H         -6.9949158505       -2.0471857360       -0.9235529024
 H         -6.9563454891       -0.2320491658        1.0154916798
 H         -5.3386731863        3.4193874176        3.1159822286
 H         -7.0565837696        3.7712485896        3.3021154514
 H         -6.4053557455        3.3535775258        1.7139148231
 H         -5.5850869477        1.6536134487        4.9605812523
 H         -6.7093697495        0.3147688486        4.7381125618
 H         -7.3187760061        1.9373106371        5.0780061808
 H         -8.3250816855        0.3324884907        2.7621941640
 H         -8.1798453501        1.5904980679        1.5214714747
 H         -8.7545653858        1.9986856509        3.1332633722
 H         -3.9694854242        1.6302592148        3.4610442277
 H         -2.2074686630        0.3692274301        2.3552759793
 H         -0.0566847723        4.3022316658       -1.5691517862
 H         -1.4426736234        6.2828770596       -1.9908958793
 H         -3.6955688129        6.4589640246       -0.9971800316
 H         -4.5681101333        4.6157199597        0.3948465518
 H         -3.1764420019        2.6241044726        0.8199201478
 H          0.0235230801        4.3505740240        1.5501856776
 H          1.4035838997        6.3455974212        1.9208446078
 H          3.6576256996        6.5009401432        0.9265197953
 H          4.5359623160        4.6252364466       -0.4177362829
 H          3.1493771809        2.6199134400       -0.7931486622
