124
 energy: -170.940145892055 gnorm: 0.000040209061 xtb: 6.7.1 (edcfbbe)
C            6.44021685583500        2.97107434990220       -3.17960482729644
C            6.64242635894795        1.45451225276871       -3.31566937515841
C            8.07753184916321        1.12679841571820       -2.89132637331900
C            6.47403907916585        1.03714777028735       -4.78464440622038
C            5.60218251309623        0.73612304164470       -2.46804989406049
C            4.24419177944744        0.91574070824894       -2.76322530613750
C            3.23278403768138        0.29905378837500       -2.05292045595608
C            3.58821312510458       -0.51684321399341       -0.98837918963432
C            4.95020492084138       -0.72799655311860       -0.68066220578620
C            5.94545356585603       -0.10477922282400       -1.41708522990945
C            4.97800525277913       -1.65463389966756        0.42177730897824
C            6.00864905372809       -2.22191066837618        1.15606991159622
C            5.71568736633583       -3.08892015892684        2.20025465996440
C            6.79583966646815       -3.75495649964896        3.04068941434545
C            8.21020537348388       -3.37313727256490        2.59287290529940
C            6.62792313277519       -3.32901586145618        4.50708783657929
C            6.65445159282357       -5.28015629749123        2.92311791736880
C            4.37085349858384       -3.35066594965005        2.49331453540501
C            3.32553913260055       -2.79936116221588        1.77857463443243
C            3.63243668765779       -1.95782946576528        0.72018817595318
N            2.80129800092135       -1.27588668652236       -0.14947135473480
C            1.40763298151455       -1.27147918368037       -0.11268322999182
C            0.69665914402977       -2.47969768914800       -0.05677269744047
C           -0.67137735019355       -2.48603346585232        0.05707988139548
C           -1.39488613164080       -1.28470731793787        0.10039899619909
N           -2.78843727905850       -1.30384464875146        0.13642916514530
C           -3.61135225319883       -2.00464353499018       -0.72605554961106
C           -3.29428328800991       -2.85389690570244       -1.77523513900467
C           -4.33279201294066       -3.42496596428000       -2.48432658294554
C           -5.68068200372438       -3.17557815092456       -2.19456965657541
C           -6.75266316945101       -3.86285638627217       -3.02835654915589
C           -6.59592744639461       -5.38498587444836       -2.89187111338962
C           -6.58684920726420       -3.45326247686042       -4.49966744928910
C           -8.17160275313358       -3.49002666918818       -2.58748201289627
C           -5.98411276515421       -2.30102980441871       -1.15968331800677
C           -4.96045927859962       -1.71403044789258       -0.43109475671982
C           -4.94375657941930       -0.77590869465804        0.66185760830361
C           -5.94631388020522       -0.15746432693875        1.39240342776004
C           -5.61303371268670        0.69747151167162        2.43524037064826
C           -6.66174463392901        1.41035736726669        3.27706334395054
C           -6.47625761674370        2.92811056605865        3.13108212728174
C           -6.48951622141330        1.00453181144597        4.74883293686433
C           -8.09294126473999        1.06419453983308        2.85414320826901
C           -4.25725907871091        0.89624498578441        2.72839087177500
C           -3.23862068912803        0.28489209150474        2.02386092652644
C           -3.58437994410072       -0.54560927060734        0.96747021435442
C           -0.71787145846356       -0.05272848535108        0.02462457648160
N           -1.36251334788780        1.10989050533699       -0.05433566609881
C           -0.71007447488134        2.27246842795964       -0.11306599706784
C           -1.50176993340415        3.46746447154932       -0.39148040703430
C           -1.00805922259619        4.49909730532033       -1.19225229140779
C           -1.78765570159489        5.60685450086635       -1.46082890924547
C           -3.07178650910658        5.70105293124260       -0.94607785086493
C           -3.57905260212725        4.66880811831575       -0.17275766963129
C           -2.80594857988859        3.55674099718843        0.09880864630871
C            0.68735592369779        2.28011324481758        0.06915443992033
C            1.46808223242980        3.48454307005031        0.33777362436481
C            0.96560012817846        4.51802804354143        1.13059752433018
C            1.73580330793822        5.63440933085009        1.39056183900508
C            3.01910379762739        5.73552476718411        0.87504559677469
C            3.53516551451522        4.70165388840092        0.10975248114793
C            2.77143621415468        3.58111497839743       -0.15332304980262
N            1.35108817930086        1.12355762061656        0.02032961266399
C            0.71789470918523       -0.04593994713029       -0.04833604816326
H            5.44727531984831        3.27117950009151       -3.50340655728594
H            6.56765152780148        3.27307712982493       -2.14206011435662
H            7.17174744775956        3.50147282944433       -3.78579083961276
H            8.28291237398277        0.06368332060067       -2.99413701401765
H            8.26111532920238        1.42976576651049       -1.86303345756001
H            8.77450395581171        1.66671627731112       -3.52926653046161
H            7.23646407916893        1.51371581053104       -5.39731676154118
H            6.57583601070017       -0.04189328290454       -4.88351974173486
H            5.50030753595817        1.32419616394216       -5.17156191048486
H            3.96116627318456        1.55747148248166       -3.58397841633124
H            2.19955325820185        0.44819400487905       -2.32721701260070
H            6.97434946403731       -0.29292690919940       -1.16069595181098
H            7.02439611298585       -1.97241660570984        0.89975269833372
H            8.37557107594571       -2.30243095418489        2.68863155466570
H            8.93829690337280       -3.88221795691529        3.22139094719830
H            8.38852534487263       -3.67291879540234        1.56268078129135
H            6.69876224671162       -2.24652645591220        4.59509582218666
H            5.66538737725779       -3.63993860384704        4.90373632854500
H            7.40861870512531       -3.77752014721775        5.11793222159472
H            6.74937395128120       -5.58742145456000        1.88337404158887
H            7.43287121277986       -5.77305115446054        3.50175632101546
H            5.69059909472916       -5.61957202513353        3.29206779564335
H            4.12589846875126       -4.00738044256695        3.31388028867535
H            2.30179477679916       -3.01072681537261        2.04926011305199
H            1.24473154149995       -3.40743211808472       -0.11473994696513
H           -1.20994686255648       -3.41865060111512        0.12488200252054
H           -2.26801871919879       -3.05631214215929       -2.04322634334243
H           -4.07978352616986       -4.08765826157454       -3.29762401093527
H           -7.36701805249864       -5.89286101148707       -3.46737061534401
H           -5.62720669694502       -5.71875607347448       -3.25318599820564
H           -6.69153037830723       -5.68083214843594       -1.84887944988577
H           -5.62155511177746       -3.76117885190265       -4.89190889490712
H           -6.66637904651035       -2.37252574667319       -4.60082015023418
H           -7.36336646046218       -3.91534514812196       -5.10569192587507
H           -8.34751763589472       -2.42221554322233       -2.69601844198050
H           -8.34894111986912       -3.77955575371473       -1.55419815668525
H           -8.89329668939385       -4.01374663715899       -3.21132764970102
H           -7.00284410459865       -2.06079466083061       -0.90635653160991
H           -6.97292660980550       -0.36029876185895        1.13803559551575
H           -5.48733484913663        3.24152112593512        3.45448583129704
H           -7.21462482437765        3.45433381905695        3.73259173313160
H           -6.60538043886428        3.22177035730674        2.09135202840274
H           -5.51853946248462        1.30345184540618        5.13370081528298
H           -6.58092083003824       -0.07476071927892        4.85489469394624
H           -7.25650607349289        1.47781372859859        5.35834284070316
H           -8.28724875450651       -0.00021002597731        2.96484692110562
H           -8.27880542349784        1.35740273449155        1.82343040897486
H           -8.79610505561599        1.60153179415021        3.48746929926555
H           -3.98175344812993        1.54914104125167        3.54288678105127
H           -2.20719819388454        0.44886261754488        2.29652728656169
H           -0.01483627837456        4.42345515102219       -1.61112602868518
H           -1.39350714857790        6.39922050254004       -2.08066486927946
H           -3.67643834872560        6.57122941697694       -1.15494144091184
H           -4.58336170260367        4.73190786031591        0.21964700731394
H           -3.19362752946202        2.74479848650746        0.69603334365609
H           -0.02693112847402        4.43711880137165        1.55011076883061
H            1.33495898315105        6.42819714185222        2.00426313029593
H            3.61638056813517        6.61236029799872        1.07718814441598
H            4.53891709106286        4.77025853866445       -0.28314438470141
H            3.16586064710617        2.76786695585955       -0.74433089903018
