  55
       -101.70249826
 C         -4.6061053431        5.7739359063        0.0080271922
 C         -3.1450852636        5.4527623135        0.0028456482
 C         -2.6723702870        4.1541167197        0.0007194979
 C         -1.3003013196        3.8790485908       -0.0026648522
 C         -0.8392132344        2.5111271326       -0.0040685764
 N         -1.7523394515        1.5312187540       -0.0067515770
 C         -1.3803413880        0.2793163259       -0.0083274653
 N         -2.2104243778       -0.7288801793       -0.0090591537
 C         -1.7507533757       -1.9869581337       -0.0104717909
 C         -2.7089348669       -3.0665839175       -0.0047680976
 C         -4.0798244554       -2.7895818687       -0.0002112595
 C         -4.9886753072       -3.8257869906        0.0074901994
 C         -4.5229089267       -5.1295142713        0.0113339182
 F         -5.4262381739       -6.1368889583        0.0189774537
 C         -3.1653039005       -5.4478759636        0.0062558289
 C         -2.7223020860       -6.8768466598        0.0160353037
 C         -2.2696557231       -4.3950496883       -0.0020199710
 N         -0.4456805078       -2.2885341245       -0.0150927133
 C          0.4528104046       -1.3403266356       -0.0138836718
 N          1.7412475144       -1.5544920818       -0.0159236964
 C          2.6005275579       -0.5270137021       -0.0080342970
 C          4.0154169267       -0.8135753350       -0.0063333457
 C          4.4667052429       -2.1369569732       -0.0329219413
 C          5.8198966843       -2.3997371843       -0.0319013001
 C          6.7114201835       -1.3409911625       -0.0031209677
 F          8.0368731900       -1.6138620639       -0.0016278737
 C          6.3024936632       -0.0081708422        0.0260251584
 C          7.3134844072        1.0942945348        0.0558556244
 C          4.9418513999        0.2347468719        0.0228707917
 N          2.2088791388        0.7540362711       -0.0013845745
 C          0.9386866725        1.0579647318       -0.0036139963
 N          0.4802643294        2.2810085032       -0.0019144658
 N          0.0037168869       -0.0012492639       -0.0082044748
 C         -0.3817822559        4.9334059290       -0.0047779035
 C         -0.8337076504        6.2357213390       -0.0030196855
 C         -2.1971615799        6.4754193080        0.0011089991
 F         -2.6266277581        7.7585431405        0.0030356561
 H         -4.8601495095        6.3885995147       -0.8544764788
 H         -4.8625529171        6.3429382826        0.9010016376
 H         -5.1994370405        4.8647686545       -0.0157268017
 H         -3.3616197650        3.3238141221        0.0015890222
 H         -4.4055539933       -1.7618843834       -0.0024227280
 H         -6.0518646972       -3.6436342601        0.0109121145
 H         -3.2024986322       -7.4271720588       -0.7912303597
 H         -1.6446621770       -6.9460386461       -0.0954654606
 H         -3.0119393642       -7.3520389083        0.9526081606
 H         -1.2071368974       -4.5844191096       -0.0068136900
 H          3.7434543443       -2.9360690789       -0.0544285030
 H          6.1985207013       -3.4095921668       -0.0527492048
 H          7.9069703834        1.0841584537       -0.8579157196
 H          7.9983856835        0.9559419379        0.8913399091
 H          6.8260528361        2.0601196439        0.1498844190
 H          4.5697467976        1.2475664122        0.0443594878
 H          0.6727124215        4.7087623480       -0.0084360117
 H         -0.1501041401        7.0701377210       -0.0052845967
