97
 energy: -148.265495460653 gnorm: 0.000041218290 xtb: 6.7.1 (edcfbbe)
C            1.50734891839517       -0.63416206065679       -3.33345256099643
C            1.86616835647621        0.83972980229146       -3.18772997576656
C            0.63045946365615        1.73657937637789       -3.22651213596292
C            0.98217186531872        3.20704787623135       -3.00995316357040
C           -0.26481497728964        4.08420777410535       -2.91618900872704
C            0.02427019591959        5.54988245862776       -2.58152861003986
C            0.74973061800175        5.80933952169693       -1.25827189379379
C           -0.00958809737644        5.38361998060478        0.00249469676973
N           -0.02340114181665        3.95297644319585        0.20892421384758
C           -1.19501315202066        3.20031899916094        0.23040706965240
O           -2.31223830500742        3.70369749825004        0.13627369931651
C           -0.76732235707807        1.82293022571804        0.38442072305456
C           -1.37289942979461        0.55110355640957        0.44389191722189
C           -2.71810389110490        0.13017296953913        0.38090081502853
C           -3.04905297556351       -1.24261400321203        0.50463455483127
C           -4.34638245904283       -1.67284579631151        0.44429376145789
C           -5.39279055897425       -0.75481701887470        0.26580415498036
N           -6.71173335047541       -1.18971688120589        0.21333920828881
C           -7.18088404169747       -2.26654486487149       -0.51827973475253
C           -6.50460428317552       -3.09907423714255       -1.40078611303752
C           -7.22855369107753       -4.09380325169678       -2.03345796863474
C           -8.59363242662313       -4.25265992694147       -1.81059399487551
C           -9.28028964608659       -3.40296811279734       -0.96027715813209
C           -8.57440784954677       -2.39993676039397       -0.31432235705990
C           -8.95760235263332       -1.34769426564339        0.59150713620741
C          -10.16320494497953       -0.98357698871298        1.17065057466557
C          -10.17973815986837        0.08939298815700        2.04523524264748
C           -9.01007448061177        0.77685461668757        2.35784610886660
C           -7.79581431167072        0.43000596638527        1.79291645340529
C           -7.77902542242019       -0.62312962857374        0.88749609233961
C           -5.08306271489829        0.60859643214931        0.14452749634160
C           -3.78483979348503        1.04166444132264        0.19229934626755
S           -0.09759407952659       -0.65413910930980        0.61920669328246
C            1.20884542519828        0.52803115151803        0.59394804456018
C            2.54807686662104        0.07758313741075        0.64656422615537
C            2.83607668218585       -1.30180836080656        0.78167367325929
C            4.12425352116886       -1.76391299570504        0.79564803471416
C            5.20101983418936       -0.87118217423910        0.68738853896455
N            6.50915111968088       -1.34033632784156        0.69928286954326
C            6.98690651030133       -2.42123654510513       -0.02117920295795
C            6.33601705218138       -3.22419827818288       -0.94893956354563
C            7.06530085203703       -4.23091400610620       -1.55605501052417
C            8.41175027137868       -4.43052097752181       -1.26357089149199
C            9.07534275538614       -3.60970742418068       -0.36790640230175
C            8.36359782286035       -2.59511915452993        0.25319335460080
C            8.72725016423733       -1.56383366533517        1.19056424732027
C            9.91112753249514       -1.23904699191172        1.83432076420369
C            9.91165638267299       -0.17657764607459        2.72168170731356
C            8.74608906307947        0.53851182423554        2.98324887740842
C            7.55339589267835        0.23125730579619        2.35314755895241
C            7.55485576395309       -0.81070561117734        1.43482967487688
C            4.93319288231471        0.50057736127470        0.56923299471619
C            3.64432548666743        0.96491354360048        0.54498943894502
C            0.64123164823223        1.80809981513093        0.47624159058238
C            1.11270699144950        3.18405029093779        0.40436932408422
O            2.24141912475033        3.65826706360608        0.50597137467226
H            2.40374952279890       -1.24933053565855       -3.30203567748593
H            0.99865948870248       -0.81062505143887       -4.27887779516350
H            0.84759917558622       -0.94502208798127       -2.52606975397879
H            2.38782808126163        0.99425144304387       -2.23926457121295
H            2.54782646887055        1.13223745899907       -3.98999374141183
H           -0.06609496276827        1.41978595387444       -2.44459272513315
H            0.12017690450886        1.61853031143780       -4.18560850907681
H            1.61457775940643        3.55930532071252       -3.82865998088023
H            1.56391728847579        3.28798394811738       -2.09022509842512
H           -0.94633255087947        3.66806942026930       -2.17270125203339
H           -0.78905663729960        4.05287346202547       -3.87565989007774
H            0.63369742477628        5.97699811063901       -3.38239873735703
H           -0.92764594051157        6.08755779347675       -2.56561145784145
H            1.72554166440327        5.32262261322216       -1.25441586544455
H            0.92300605503737        6.88498545980725       -1.17762067683538
H           -1.05705897305700        5.69401260421628       -0.04791289743516
H            0.46349837080339        5.85015112531266        0.87461405181304
H           -2.25496392427541       -1.95579490311445        0.66800949940759
H           -4.57619122024153       -2.71911235307508        0.57692584396037
H           -5.45284431781136       -2.96885998163152       -1.60206816075510
H           -6.72363548137938       -4.75709359080777       -2.71973281307831
H           -9.12416909931353       -5.04307097891653       -2.32006258547803
H          -10.34290179868988       -3.51248144780260       -0.80698001880110
H          -11.06682568424904       -1.52966919789867        0.94729698762626
H          -11.10918249476064        0.39214169028741        2.50379593183705
H           -9.04870933842421        1.59612882523007        3.06019331444563
H           -6.89259584907140        0.95554050794585        2.06130359993363
H           -5.87705172272829        1.31848466079418       -0.03147319286111
H           -3.56662151947994        2.09063490160745        0.07625710065814
H            2.01648299425043       -1.99660727788334        0.88681032469260
H            4.31998917248599       -2.81671325264964        0.93081930614939
H            5.30022487007392       -3.06299528008390       -1.20342471066051
H            6.57969465098255       -4.87189128794178       -2.27660616659174
H            8.94687299527207       -5.22948819193009       -1.75457863321744
H           10.12509568640271       -3.74988795045268       -0.16064986933564
H           10.81001147576856       -1.80718020666521        1.65013502529056
H           10.82436719546224        0.09610721872963        3.23005688897915
H            8.77064908629242        1.34875134991014        3.69665254564362
H            6.65235587676278        0.77859529864707        2.58221192111272
H            5.75285087092535        1.19322626743815        0.45251106675690
H            3.45948252025765        2.02125981730778        0.43678465399793
