97
 energy: -148.328976643046 gnorm: 0.000037447329 xtb: 6.7.1 (edcfbbe)
C           -6.24209727522549        6.13728165258095       -0.38431878202300
C           -5.11967724509902        5.61978186219772       -1.27777197780106
C           -3.78273586005663        6.32908704597020       -1.05107887049014
C           -3.15713028573036        6.00464604763700        0.30434025823047
C           -1.81074999545218        6.69604430679176        0.53273396484768
C           -0.69375440655221        6.29504811650613       -0.43606932301410
C           -0.44277314078293        4.79135655065370       -0.54499226284060
C           -0.04532074290422        4.15923773647677        0.78951595694574
N            0.20024922371836        2.74040473105890        0.64280965172115
C           -0.82396905711520        1.80616097393697        0.59270281333142
O           -1.99736624998439        2.09983864154448        0.69850951328956
C           -0.16094671669345        0.51173003322538        0.41425666277078
C           -0.52062531318310       -0.80869386082084        0.27631850336820
C           -1.80185443598588       -1.47220154341280        0.25112913691913
C           -2.98257668217566       -0.80528432316765        0.59796995681380
C           -4.19337337426099       -1.46269372217814        0.57747119689634
C           -4.26880785112852       -2.80386313651542        0.20052480866885
N           -5.49623717084764       -3.46600182667616        0.17220160902987
C           -5.75454035097622       -4.71728869344163        0.70586489334249
C           -4.92412332645233       -5.55946278166759        1.43193282505097
C           -5.45050591564972       -6.75601108828856        1.88202609827328
C           -6.77421384287020       -7.10947105784529        1.63033630302698
C           -7.61421058247873       -6.26174203897353        0.93517740448650
C           -7.10709375115020       -5.05446020681763        0.47239294368066
C           -7.68691983593058       -3.95117377089965       -0.24362304123679
C           -8.95310226804995       -3.71273660487538       -0.76208225689552
C           -9.17987638757301       -2.52913262244586       -1.43662690323311
C           -8.15737307740815       -1.59966652093172       -1.61284642166457
C           -6.88890391008573       -1.81608664836161       -1.10719129559283
C           -6.66246008075356       -2.99044736124208       -0.40325209330347
C           -3.09631401801522       -3.47470900815805       -0.15284395164632
C           -1.88657462925494       -2.82007928274308       -0.12157256508848
S            0.93470847601227       -1.76620490030782        0.10943366334514
C            2.00937849987933       -0.38893214309883        0.21708065390802
C            3.43381400837357       -0.60669280064514        0.14026541036546
C            4.33476096671329        0.45665579922865        0.01019731043527
C            5.69052661495977        0.22314979148227       -0.06816524907457
C            6.19346517967739       -1.07690170972582       -0.01035582385242
N            7.56731474782295       -1.31010558611744       -0.07770737415515
C            8.19305044236573       -2.24893318790217       -0.88020555289033
C            7.65162242875358       -3.10943634662563       -1.82483749924697
C            8.51725138533276       -3.93178445980499       -2.52186586559955
C            9.89181227413249       -3.89834960779438       -2.29844998473353
C           10.43945681356042       -3.02409479780462       -1.38017477093860
C            9.58906435880283       -2.18876606566665       -0.66746498165227
C            9.80988351555999       -1.16741791548781        0.31947901665509
C           10.94945973235806       -0.67637098565006        0.94320977172627
C           10.80817903345092        0.31623827330806        1.89302559171567
C            9.54912194045608        0.80456083144184        2.23493011416410
C            8.40079629188898        0.33004840537617        1.62860124717513
C            8.53870764323712       -0.64669353755889        0.65252254696097
C            5.30164491130927       -2.14294135508805        0.12243527934601
C            3.94752868107130       -1.90916394169396        0.19140267075434
C            1.24917480649786        0.74757862988562        0.36700356688022
C            1.46676727757366        2.19017674060875        0.51152211859974
O            2.48575022774044        2.84992386225055        0.52975172061018
H           -6.36311406339223        7.21167768543796       -0.50903325128833
H           -6.03526139492061        5.93219169949595        0.66295215141695
H           -7.18207694673071        5.65394255957984       -0.64320841426452
H           -4.98807134427338        4.54759750763752       -1.11035590917938
H           -5.41281935081245        5.75693455454025       -2.32217226565283
H           -3.92806204223131        7.40924078678596       -1.13388024331614
H           -3.09774880703810        6.02477557456550       -1.84493508834200
H           -3.04356013016962        4.92305334814546        0.39952909541663
H           -3.83372531882610        6.32993902872585        1.09725160995892
H           -1.48676977992188        6.49321237560184        1.55597162248379
H           -1.95295913777680        7.77676244880457        0.44948633234179
H           -0.92820939005562        6.67131815656450       -1.43329286512605
H            0.22946539877564        6.78305318306447       -0.11336663325544
H           -1.33626785697288        4.28810431914933       -0.91790065985169
H            0.36293348527026        4.61943030997107       -1.26421737738889
H           -0.84875112646188        4.27661879906763        1.51988611616520
H            0.87443967049469        4.60967084171799        1.17043004867145
H           -2.94751019266762        0.23025070550514        0.89212074525489
H           -5.09002002182347       -0.94170839686546        0.87625971503473
H           -3.90335463844014       -5.28862105748487        1.65415064341149
H           -4.82177314202161       -7.42958381887688        2.44584677224979
H           -7.14792347663270       -8.05449910094892        1.99625735937025
H           -8.64605281842836       -6.52543890460735        0.75800794540861
H           -9.73992220127238       -4.44224177586275       -0.64181959428891
H          -10.15834401820721       -2.32229761010797       -1.84463476720647
H           -8.35813496114036       -0.69006601299002       -2.15997585392128
H           -6.10145885197853       -1.09608818192457       -1.26997649071869
H           -3.14657677775035       -4.50420665755623       -0.47228832651363
H           -0.98953077585185       -3.34915858227118       -0.40768938281722
H            3.96849152339198        1.46851603045756       -0.03536707794709
H            6.37000290561004        1.05195854487119       -0.19555255165305
H            6.59121638048426       -3.13085535291174       -2.02410465408185
H            8.11833969738635       -4.61252911814590       -3.25968049178380
H           10.53521109430409       -4.55851887952313       -2.86133158907001
H           11.50647715017881       -2.98316536504055       -1.22047347472723
H           11.92316703102601       -1.06918549158722        0.69170657771310
H           11.68182167337885        0.71482143158100        2.38755624515049
H            9.46648685962850        1.56912282527694        2.99365210956682
H            7.43064674001767        0.70414753227411        1.91803096278480
H            5.68164765486136       -3.15034843081653        0.19447765568237
H            3.27036359951811       -2.74278510312995        0.30610391797484
