97
 energy: -148.332345149414 gnorm: 0.000043335667 xtb: 6.7.1 (edcfbbe)
C            2.14851012118543        0.87367715019378       -3.16495340914155
C            2.41218764740184        2.14034215127582       -2.35986147931170
C            1.13833073675507        2.95218011334384       -2.13239480337027
C            1.39377492263219        4.18198082642954       -1.26310445875581
C            0.10072729455160        4.91488307433251       -0.91049944499631
C            0.29302909335746        6.09995733439429        0.04062873906107
C            0.93338536940463        5.78548961103034        1.39577578206539
C            0.10688649763986        4.88851786765786        2.32154862532035
N            0.05237823237461        3.50876681312032        1.88528216845326
C           -1.13378297184711        2.87443102511122        1.54169477119828
O           -2.22298347044152        3.40566066944025        1.62571414477245
C           -0.74631205442941        1.53194937018731        1.10223956143835
C           -1.35635046926446        0.41191315146825        0.58519906335383
C           -2.73536124739167        0.08636736358955        0.31130953471082
C           -3.05868795788906       -1.13074598776200       -0.30356486726688
C           -4.36606812303094       -1.47343161423905       -0.56019506838399
C           -5.40238651064180       -0.60702684052215       -0.20736139419582
N           -6.72929515850177       -0.95725139125078       -0.45932575413174
C           -7.68011429365712       -0.15720658743738       -1.06879761459919
C           -7.55273483235307        1.11543166765536       -1.60708126764583
C           -8.66656854494433        1.68032072078662       -2.20005251069214
C           -9.87926656367050        0.99821416798625       -2.26919535224560
C          -10.00488313047604       -0.27889306178628       -1.75866252775829
C           -8.89957907812977       -0.86660343293691       -1.15726778542025
C           -8.67003239817303       -2.15322336020699       -0.55897893306293
C           -9.48136922468259       -3.25708877409743       -0.33055017802046
C           -8.94124967178485       -4.35384484026948        0.31205120934799
C           -7.61550798382589       -4.35105644062671        0.74005512562976
C           -6.78917317287629       -3.26407534015298        0.52370024209975
C           -7.31837175896515       -2.17009576195270       -0.14630513411371
C           -5.09059681415521        0.60972431430332        0.39931814022018
C           -3.78040131645026        0.95246876822302        0.65450255225218
S           -0.12274331968852       -0.78007340161426        0.23983496064027
C            1.19646227641136        0.23350272794417        0.78463139733127
C            2.54709781351493       -0.26000057840442        0.66822828665771
C            2.78544682159704       -1.52996028941339        0.12675603136812
C            4.06557771363893       -2.00993781790287       -0.02660489030902
C            5.15841889054778       -1.23197391800716        0.35923070814079
N            6.45870864143076       -1.71053678122668        0.19558015434311
C            7.50983798525940       -1.01858604078782       -0.38060428179193
C            7.52588471175256        0.23948643623783       -0.96599122293283
C            8.71730095344695        0.68441546586254       -1.50802320885826
C            9.86741324822793       -0.10124122369684       -1.48126283162243
C            9.85015358825894       -1.36534058789601       -0.92524217160409
C            8.66435990541235       -1.83399477313102       -0.37469366023222
C            8.28675233167516       -3.07496483215826        0.24460127933484
C            8.98042803181753       -4.23961164573132        0.54688258569610
C            8.30736428502598       -5.26482792649900        1.18212553598607
C            6.96528418609470       -5.13123721962296        1.53107142298269
C            6.25456246497165       -3.98145735072584        1.24102775935694
C            6.91762330381718       -2.95941569372433        0.57649303662562
C            4.93150319576923        0.03023152458305        0.90798172279354
C            3.64873686254023        0.50897685231736        1.06192517848121
C            0.67513400818782        1.42839161963742        1.22335855330659
C            1.16632039163671        2.69031976701380        1.78547458583228
O            2.27883225781651        3.02433252308333        2.14263262516228
H            3.07059241305722        0.31540173051206       -3.31021403505107
H            1.73686004061620        1.12090548306733       -4.14122442993219
H            1.43811484142709        0.23423044187064       -2.64541712215032
H            2.84048498697743        1.87046631665295       -1.39076100139883
H            3.14449331990669        2.75975684992768       -2.88291726571081
H            0.39277292811127        2.31816890066234       -1.64365032797623
H            0.72329574292682        3.26161925362802       -3.09449228114870
H            2.06787000652439        4.86627435239679       -1.78362972703448
H            1.89997523493067        3.85683134007268       -0.35288712724903
H           -0.61315121150952        4.20916890926787       -0.48178520089402
H           -0.34968319029519        5.29311309711204       -1.83240002652875
H            0.92268969097772        6.84256164007847       -0.45593171235793
H           -0.68402758079616        6.55810201963190        0.21522359129510
H            1.91730256467826        5.33653882199695        1.25831667597057
H            1.07937375738719        6.73060437823600        1.92329660275844
H           -0.92878366154703        5.23406211650614        2.37613665072233
H            0.54908255468313        4.91042202984615        3.32364162029196
H           -2.26795142007302       -1.80742517454487       -0.59233177173613
H           -4.59514872180701       -2.40508128526413       -1.05429133888557
H           -6.61405382443719        1.64751549132894       -1.57742395544514
H           -8.59296948242322        2.67195141234876       -2.62226608986074
H          -10.72733075141390        1.47472944829524       -2.73868612497807
H          -10.93962589714558       -0.81476905106910       -1.82802358707062
H          -10.51433912983999       -3.25111601662938       -0.64463326702590
H           -9.55446864242226       -5.22348405358835        0.49742809514983
H           -7.22514589164713       -5.21594341477115        1.25632435582188
H           -5.77018508783066       -3.26606042169871        0.87939506259967
H           -5.88558777954687        1.27806690202794        0.69298484509601
H           -3.56387228281680        1.89396562993164        1.13084272477063
H            1.95114412774723       -2.13757916307250       -0.19122415372525
H            4.23120881552088       -2.97973134258562       -0.46997241070650
H            6.63722397956297        0.85063252980574       -1.01032815166610
H            8.75577250804625        1.66226608713198       -1.96559909993996
H           10.78014917251472        0.28344469994830       -1.91205284172714
H           10.73659573703331       -1.98170248538107       -0.92122134493069
H           10.02553371905638       -4.33542871954808        0.29327477605916
H            8.82765294556185       -6.18013148904835        1.42322695900028
H            6.46941188086887       -5.94229927858878        2.04410063796667
H            5.22111033947507       -3.88249307733093        1.53604561600627
H            5.76891221471297        0.62868081010828        1.23291198552504
H            3.49696482995458        1.48176973106670        1.49926679843573
