  83
       -134.29332099
 C          7.3462667866        3.1738993982        1.9530993272
 C          5.9853915804        3.2781426898        2.1563790080
 C          5.1385389406        2.2477658397        1.7767242957
 C          5.6419797114        1.0890570120        1.1986267175
 C          7.0217586315        1.0070171625        0.9676805478
 C          7.8616111376        2.0369201779        1.3474069213
 O          7.6008392158       -0.0741661777        0.3506584656
 C          6.7693801057       -1.0827972541       -0.0703437739
 C          7.3631565608       -2.1517572674       -0.7144570597
 C          6.5965134708       -3.2242249731       -1.1465678337
 C          5.2369484320       -3.2230371932       -0.9137836182
 C          4.6360133882       -2.1536232361       -0.2669224531
 C          5.3848182647       -1.0589239933        0.1474670411
 N          4.8165079879        0.0343465159        0.8058931480
 C          3.4342258906        0.0639415016        1.0844578853
 C          2.9953891095        0.0952682169        2.4074992493
 C          1.6456516937        0.1065409826        2.7096959035
 C          0.7281958124        0.0662053868        1.6712617043
 C          1.1747168913        0.0324941420        0.3409300118
 C          2.5148305406        0.0432828135        0.0351231157
 C          0.0087075101       -0.0540718278       -0.6103328965
 C         -0.0804654619        1.0659075518       -1.6190123487
 C         -0.1955932714        2.4180555889       -1.3833640147
 C         -0.3029247540        3.2711828129       -2.4737276823
 C         -0.2954006162        2.7727869994       -3.7678501707
 C         -0.1801173891        1.4125853969       -4.0074624892
 C         -0.0742714184        0.5552312274       -2.9248045526
 C          0.0431033367       -0.8932687538       -2.8530513957
 C          0.1176676831       -1.8562342900       -3.8457778967
 C          0.2391550733       -3.1855505994       -3.4730360975
 C          0.2846851415       -3.5502660503       -2.1358397627
 C          0.2083091731       -2.5908234274       -1.1349114510
 C          0.0862560296       -1.2692541961       -1.5030263789
 C         -1.1625083354       -0.0476599353        0.3391768233
 C         -2.5008007501       -0.0759507014        0.0264717794
 C         -3.4261875471        0.0119227215        1.0666916641
 N         -4.8057981918        0.0392977062        0.7763162629
 C         -5.3529389138        1.0841337853        0.0270547986
 C         -4.5803673302        2.1121445952       -0.4995475724
 C         -5.1613420760        3.1336272662       -1.2357847604
 C         -6.5246461911        3.1545874810       -1.4478147238
 C         -7.3141531479        2.1507061220       -0.9059475687
 C         -6.7400667947        1.1295899857       -0.1722907798
 O         -7.5935386363        0.1913143999        0.3546203932
 C         -7.0364383606       -0.8421791245        1.0658682023
 C         -7.8994868456       -1.8020602154        1.5599485532
 C         -7.4070680083       -2.8907990984        2.2649909556
 C         -6.0464136673       -3.0199429901        2.4523794284
 C         -5.1763373462       -2.0594574177        1.9592902740
 C         -5.6559091940       -0.9455336849        1.2817299131
 C         -2.9946841631        0.0962205104        2.3900808453
 C         -1.6469893930        0.0999688954        2.7009517486
 C         -0.7231807251        0.0394680068        1.6689673410
 H          8.0099023106        3.9702324693        2.2506357188
 H          5.5671360917        4.1630631285        2.6107226246
 H          4.0751722558        2.3475476587        1.9261758027
 H          8.9177106335        1.9315948167        1.1571845537
 H          8.4310311400       -2.1284767323       -0.8630568816
 H          7.0683301969       -4.0519629467       -1.6514670941
 H          4.6259825490       -4.0540913162       -1.2315247407
 H          3.5743855409       -2.1779244527       -0.0794721093
 H          3.7288890259        0.1040880915        3.2002787417
 H          1.3175918214        0.1283865242        3.7378936374
 H          2.8559079378        0.0292606499       -0.9894905062
 H         -0.2054112432        2.8046779790       -0.3742311771
 H         -0.3961052726        4.3348121264       -2.3114143997
 H         -0.3821237500        3.4554424593       -4.6003908244
 H         -0.1768919937        1.0303191901       -5.0172335973
 H          0.0858462021       -1.5779791184       -4.8886328365
 H          0.3024242824       -3.9490449018       -4.2343633233
 H          0.3826898593       -4.5922613830       -1.8694748903
 H          0.2444704655       -2.8736473864       -0.0925002050
 H         -2.8352114150       -0.1541755503       -0.9974081520
 H         -3.5161021868        2.1246805841       -0.3289143334
 H         -4.5333535947        3.9149510713       -1.6353754325
 H         -6.9813180906        3.9448829622       -2.0216325214
 H         -8.3842012923        2.1446519462       -1.0371307142
 H         -8.9559222514       -1.6799571180        1.3809221134
 H         -8.0889352569       -3.6307763285        2.6527140907
 H         -5.6466833258       -3.8703725496        2.9823624513
 H         -4.1129464086       -2.1801349037        2.0961955768
 H         -3.7326515561        0.1670886872        3.1756527373
 H         -1.3253349138        0.1681556647        3.7291295312
