  83
  -133.787117598700       0.291856253799609      !
 C          7.4013420637        3.6392424511       -0.4530129984
 C          6.0423061882        3.8647554069       -0.3760849596
 C          5.1787091976        2.8346339373       -0.0351505976
 C          5.6634973770        1.5635747321        0.2462994086
 C          7.0419044069        1.3372993429        0.1335050911
 C          7.8984453980        2.3675506575       -0.2056089188
 O          7.6031252151        0.1005909760        0.3366136989
 C          6.7574655787       -0.9338783432        0.6548084807
 C          7.3345346652       -2.1740376674        0.8522395882
 C          6.5510787266       -3.2638057176        1.2039927647
 C          5.1916104154       -3.0972928129        1.3695645330
 C          4.6070325294       -1.8552838824        1.1719095709
 C          5.3735047815       -0.7596816889        0.7946703686
 N          4.8210847808        0.5064404599        0.5918421123
 C          3.4399335224        0.7237904749        0.7839133311
 C          3.0087867677        1.5695655732        1.8045834019
 C          1.6609281565        1.7884092187        2.0250537585
 C          0.7386782697        1.1396207829        1.2188963756
 C          1.1774549365        0.2891919757        0.1917963413
 C          2.5163844091        0.0804080875       -0.0403856865
 C          0.0041693463       -0.3136503233       -0.5376350400
 C          0.0012285886       -0.0565370950       -2.0246443434
 C          0.0253156512        1.1536999514       -2.6815297745
 C          0.0122094222        1.1514717031       -4.0701497694
 C         -0.0250333073       -0.0405284390       -4.7777673666
 C         -0.0491549435       -1.2597510494       -4.1192426615
 C         -0.0354874404       -1.2655366576       -2.7342775409
 C         -0.0527681267       -2.3620440035       -1.7782155393
 C         -0.0939388018       -3.7345937887       -1.9593703060
 C         -0.1045894593       -4.5516351204       -0.8399917473
 C         -0.0737501771       -4.0122414488        0.4371724758
 C         -0.0328015090       -2.6372133764        0.6267947387
 C         -0.0226193363       -1.8234540223       -0.4843127181
 C         -1.1617802085        0.3051609634        0.1917981126
 C         -2.5023798993        0.1059279792       -0.0369915688
 C         -3.4193950508        0.7468055964        0.7966440902
 N         -4.8007311033        0.5279551433        0.6142667547
 C         -5.6528278019        1.5859795834        0.2945916712
 C         -5.1808916953        2.8690480811        0.0477061601
 C         -6.0545544754        3.8997556475       -0.2644018439
 C         -7.4114550794        3.6635419329       -0.3469462045
 C         -7.8955560334        2.3803806421       -0.1365578967
 C         -7.0287576237        1.3493984374        0.1731469003
 O         -7.5780153402        0.1017095104        0.3371224586
 C         -6.7229417046       -0.9333821059        0.6259274445
 C         -7.2885623236       -2.1848388892        0.7818652477
 C         -6.4963147996       -3.2771692645        1.1042659845
 C         -5.1397796238       -3.1016657251        1.2843815951
 C         -4.5668953306       -1.8484308385        1.1282499253
 C         -5.3414804478       -0.7495724826        0.7772007378
 C         -2.9783933184        1.5853932770        1.8194619860
 C         -1.6283834770        1.7978160350        2.0332240020
 C         -0.7128472674        1.1468840360        1.2209543884
 H          8.0780255072        4.4378669523       -0.7125823654
 H          5.6384250110        4.8435871184       -0.5844132621
 H          4.1165200589        3.0181861225        0.0056620354
 H          8.9534681703        2.1543216112       -0.2716748303
 H          8.4022667655       -2.2651584964        0.7322634232
 H          7.0105425588       -4.2278215423        1.3544299001
 H          4.5693963637       -3.9307950593        1.6571928358
 H          3.5450813815       -1.7390058637        1.3195673562
 H          3.7466228298        2.0511350004        2.4293689756
 H          1.3377326821        2.4426026404        2.8204942212
 H          2.8537663827       -0.5666695551       -0.8364935598
 H          0.0540238655        2.0820159760       -2.1294795392
 H          0.0309501215        2.0893915995       -4.6050133913
 H         -0.0354387626       -0.0172639470       -5.8575806941
 H         -0.0782050848       -2.1849451465       -4.6752178987
 H         -0.1182747095       -4.1603095706       -2.9513561294
 H         -0.1373622535       -5.6242032460       -0.9630207927
 H         -0.0827326011       -4.6687739784        1.2946332416
 H         -0.0106250730       -2.2154175522        1.6216936418
 H         -2.8457240096       -0.5348344429       -0.8356796476
 H         -4.1207510817        3.0625043516        0.0928728886
 H         -5.6601425093        4.8879002155       -0.4450692943
 H         -8.0960021953        4.4625268843       -0.5836955139
 H         -8.9477572985        2.1575331640       -0.2126401759
 H         -8.3545177312       -2.2826027281        0.6522040110
 H         -6.9465709495       -4.2501421309        1.2211666594
 H         -4.5104675153       -3.9368524534        1.5509924871
 H         -3.5072917233       -1.7272217175        1.2879237071
 H         -3.7100582559        2.0648021136        2.4530369548
 H         -1.2984210710        2.4463505492        2.8305442544
  83
  -133.786886370700       0.228509348672237      !
 C          6.9692641788        3.0086268760       -1.7789130597
 C          5.6031649062        3.1511662920       -1.6518555620
 C          4.8801084293        2.2837535820       -0.8458486482
 C          5.5188045075        1.2608875896       -0.1584968852
 C          6.9069654356        1.1210645443       -0.2944499790
 C          7.6208366488        1.9891944647       -1.0970022203
 O          7.6137439365        0.1358364353        0.3541268213
 C          6.9059157162       -0.7314901269        1.1523943268
 C          7.6157250643       -1.7291639969        1.7914163874
 C          6.9603098747       -2.6416359404        2.6080366456
 C          5.5941306996       -2.5507170033        2.7757491928
 C          4.8751745296       -1.5508838686        2.1368976012
 C          5.5187380486       -0.6278698178        1.3240112677
 N          4.8242510402        0.3810342253        0.6650451406
 C          3.4348859848        0.5556043843        0.8925780470
 C          3.0081543689        1.2578966999        2.0156209476
 C          1.6592926100        1.4458104573        2.2635625406
 C          0.7391496516        0.9177260690        1.3719106954
 C          1.1769669543        0.2038520939        0.2452204433
 C          2.5168243451        0.0191176074       -0.0067690781
 C          0.0036510375       -0.2859400943       -0.5638489021
 C          0.0392128407        0.1444372117       -2.0094902621
 C          0.1076830163        1.4229551118       -2.5168712438
 C          0.1379021304        1.5848197167       -3.8957476289
 C          0.0992815049        0.4855013683       -4.7402930225
 C          0.0301349450       -0.8020920806       -4.2321252011
 C          0.0010484579       -0.9716513440       -2.8578269761
 C         -0.0631189363       -2.1725767477       -2.0388230922
 C         -0.1286068311       -3.5131124038       -2.3814613976
 C         -0.1864603711       -4.4553502418       -1.3667648210
 C         -0.1785239517       -4.0706262816       -0.0344030589
 C         -0.1129319929       -2.7287800597        0.3170400189
 C         -0.0547897713       -1.7911176704       -0.6899310118
 C         -1.1611590701        0.2596837519        0.2222036105
 C         -2.5016753986        0.1168139984       -0.0468226031
 C         -3.4197784769        0.6607839550        0.8518335977
 N         -4.8013267672        0.4877640994        0.6268532157
 C         -5.6374720637        1.5902606651        0.4454356447
 C         -5.1437390604        2.8850816899        0.3493269621
 C         -6.0007824335        3.9601379408        0.1685462186
 C         -7.3623070297        3.7582871666        0.0697021515
 C         -7.8682888201        2.4678250554        0.1303212121
 C         -7.0179913372        1.3927656450        0.3075589615
 O         -7.5876384592        0.1436990881        0.3261332195
 C         -6.7487798955       -0.9325357100        0.4806897137
 C         -7.3352811081       -2.1841524462        0.4901113030
 C         -6.5602880151       -3.3203671289        0.6716702355
 C         -5.1996324527       -3.1905569821        0.8590156781
 C         -4.6057457428       -1.9373666103        0.8495926159
 C         -5.3632817320       -0.7914353405        0.6411181273
 C         -2.9795795235        1.3510593241        1.9803147529
 C         -1.6292783609        1.5060969254        2.2378490162
 C         -0.7131678607        0.9491712172        1.3592226827
 H          7.5367791283        3.6822740196       -2.4014599062
 H          5.0854156050        3.9393524350       -2.1764718283
 H          3.8119406371        2.4005846441       -0.7459057386
 H          8.6878261013        1.8555131304       -1.1750843762
 H          8.6823359547       -1.7773959826        1.6404557452
 H          7.5241763692       -3.4167759598        3.1025508379
 H          5.0724403237       -3.2580633028        3.4020048913
 H          3.8055183613       -1.4860428080        2.2648367916
 H          3.7484673481        1.6565724917        2.6935920338
 H          1.3350784280        1.9947473544        3.1345970380
 H          2.8580070637       -0.5261455286       -0.8741630464
 H          0.1382149705        2.2786323620       -1.8575601657
 H          0.1930975852        2.5785269646       -4.3148326887
 H          0.1245900245        0.6359743524       -5.8095567632
 H          0.0017591199       -1.6543137707       -4.8945796422
 H         -0.1364620707       -3.8188942679       -3.4170742596
 H         -0.2393446701       -5.5049773968       -1.6162391801
 H         -0.2246874292       -4.8227632197        0.7391204419
 H         -0.1081375300       -2.4272391683        1.3549452749
 H         -2.8441013873       -0.4078838827       -0.9264460317
 H         -4.0797490749        3.0528332419        0.4100650883
 H         -5.5902285717        4.9560026356        0.1028577692
 H         -8.0340919857        4.5912237702       -0.0647460996
 H         -8.9250036230        2.2737060235        0.0375974291
 H         -8.4036680628       -2.2477984266        0.3590131457
 H         -7.0267239427       -4.2926999372        0.6742093085
 H         -4.5829900699       -4.0621058448        1.0163613226
 H         -3.5429389740       -1.8545742607        1.0131629913
 H         -3.7120460608        1.7592080466        2.6611783707
 H         -1.3005453406        2.0376095388        3.1179590762
  83
  -133.786645310100       0.177059890425844      !
 C          7.3697038369        3.7018878136       -0.1175932074
 C          6.0126602991        3.9156991838        0.0129441288
 C          5.1553440432        2.8531552928        0.2551066359
 C          5.6446953111        1.5592394912        0.3833052361
 C          7.0201184639        1.3488270212        0.2176585378
 C          7.8703941470        2.4113984327       -0.0236360712
 O          7.5848772921        0.0980644065        0.2709914510
 C          6.7469726323       -0.9655811484        0.4987123299
 C          7.3282957784       -2.2182031504        0.5556581212
 C          6.5530326260       -3.3403890231        0.8108519680
 C          5.1973496758       -3.1954524956        1.0214156543
 C          4.6083124417       -1.9410460202        0.9640539263
 C          5.3661796089       -0.8107126768        0.6848677429
 N          4.8089927825        0.4689265993        0.6275120302
 C          3.4283732444        0.6546838891        0.8501649304
 C          2.9953639855        1.3807498216        1.9585219896
 C          1.6464638754        1.5529003867        2.2127393369
 C          0.7258971397        0.9788667692        1.3502189608
 C          1.1663001928        0.2540457975        0.2320647586
 C          2.5056251433        0.0914947756       -0.0318826455
 C         -0.0050080382       -0.2906294751       -0.5451568248
 C         -0.0483130275        0.1509978023       -1.9885617933
 C         -0.1047267371        1.4337287197       -2.4867225717
 C         -0.1489165307        1.6053057035       -3.8640229876
 C         -0.1370472167        0.5113211248       -4.7161670291
 C         -0.0802945109       -0.7804764776       -4.2172312057
 C         -0.0361709666       -0.9595196626       -2.8444790305
 C          0.0224328817       -2.1665751450       -2.0344068796
 C          0.0659010902       -3.5049523453       -2.3876067829
 C          0.1254466463       -4.4555726770       -1.3805435689
 C          0.1408420567       -4.0806783756       -0.0457984998
 C          0.0966261828       -2.7405704271        0.3162865649
 C          0.0368977897       -1.7945172653       -0.6826040418
 C         -1.1723780165        0.2136210226        0.2644373319
 C         -2.5144336706        0.0245846250        0.0271088108
 C         -3.4248731170        0.5906073976        0.9158561742
 N         -4.8166153604        0.4154297149        0.7007386741
 C         -5.5226878587        1.3142843388       -0.0909291910
 C         -4.8977924151        2.3719632571       -0.7374088526
 C         -5.6310607091        3.2533673826       -1.5185506241
 C         -6.9933873220        3.0894755095       -1.6622545133
 C         -7.6309994164        2.0349996432       -1.0214844093
 C         -6.9067775568        1.1537095300       -0.2428287565
 O         -7.5992471449        0.1329695524        0.3660546519
 C         -6.8759916161       -0.7635404264        1.1171445212
 C         -7.5681150983       -1.8068903708        1.7004949200
 C         -6.8973323010       -2.7481333683        2.4703033893
 C         -5.5336574385       -2.6388660541        2.6493142936
 C         -4.8325041357       -1.5932107829        2.0668792522
 C         -5.4914267428       -0.6434824248        1.2980557068
 C         -2.9902228642        1.3275427394        2.0130672286
 C         -1.6392504172        1.5171926331        2.2478585853
 C         -0.7264516762        0.9574129169        1.3680781157
 H          8.0412263623        4.5254585371       -0.3014388405
 H          5.6061131966        4.9114378810       -0.0761672570
 H          4.0944479479        3.0295953996        0.3389763283
 H          8.9228204520        2.2071744496       -0.1392873804
 H          8.3929863719       -2.2947373563        0.4031173652
 H          7.0164200231       -4.3133789402        0.8517846178
 H          4.5814968802       -4.0553625283        1.2356334458
 H          3.5495933804       -1.8438133299        1.1452686842
 H          3.7317626236        1.8025917860        2.6266259871
 H          1.3220567071        2.1111829459        3.0777769785
 H          2.8449605747       -0.4618750265       -0.8950646156
 H         -0.1148035114        2.2851979053       -1.8215252712
 H         -0.1939248697        2.6023597617       -4.2762195382
 H         -0.1732634225        0.6692720667       -5.7840219044
 H         -0.0722817109       -1.6286985944       -4.8852919095
 H          0.0553488358       -3.8034419656       -3.4252244250
 H          0.1613578689       -5.5036297552       -1.6390683379
 H          0.1884531840       -4.8386971937        0.7218510707
 H          0.1091036391       -2.4471954625        1.3563499979
 H         -2.8629775655       -0.5451150142       -0.8214528820
 H         -3.8322587928        2.5030964124       -0.6264377844
 H         -5.1243901647        4.0686406780       -2.0118955935
 H         -7.5678982737        3.7727321973       -2.2675335170
 H         -8.6943578135        1.8821699516       -1.1140267205
 H         -8.6330559000       -1.8672652329        1.5424616626
 H         -7.4468040032       -3.5587716310        2.9222055380
 H         -5.0008764468       -3.3657072824        3.2431359433
 H         -3.7655271035       -1.5103297961        2.2068794666
 H         -3.7257714883        1.7512544257        2.6807992216
 H         -1.3072211937        2.0909965279        3.0996913993
  83
  -133.786488516300       0.149990153559573      !
 C          7.2121577125        3.8273007269       -0.3904562131
 C          5.8529838192        3.9929808598       -0.2215193987
 C          5.0494229173        2.9105685133        0.1033149620
 C          5.5949510113        1.6446512851        0.2765557912
 C          6.9705124856        1.4805352989        0.0647267888
 C          7.7676077045        2.5629142642       -0.2567585641
 O          7.5867007106        0.2563846361        0.1479182411
 C          6.7961706319       -0.8323856850        0.4228490750
 C          7.4225586740       -2.0635133322        0.4668323233
 C          6.6995007971       -3.2074055952        0.7726634615
 C          5.3521998118       -3.1044467607        1.0506166243
 C          4.7179557531       -1.8720556678        1.0047558857
 C          5.4206092797       -0.7215267900        0.6686846807
 N          4.8157175932        0.5356662941        0.6116256310
 C          3.4344305409        0.6820911693        0.8562118976
 C          3.0007805960        1.4719825143        1.9201969530
 C          1.6521935691        1.6515887373        2.1704405075
 C          0.7307673381        1.0169967850        1.3520353290
 C          1.1725372982        0.2050465647        0.2955270816
 C          2.5110640845        0.0383344176        0.0315878602
 C          0.0014589430       -0.4027085906       -0.4334340661
 C          0.0146750118       -0.1902231049       -1.9257499657
 C          0.0447657520        1.0000813714       -2.6180203823
 C          0.0582252652        0.9565821705       -4.0059471862
 C          0.0412902806       -0.2560915327       -4.6784458487
 C          0.0110303205       -1.4554083200       -3.9846166851
 C         -0.0016466910       -1.4199368865       -2.6001397169
 C         -0.0271882460       -2.4882131158       -1.6128787498
 C         -0.0550320500       -3.8658117850       -1.7537107069
 C         -0.0768463180       -4.6495433560       -0.6109144554
 C         -0.0703445388       -4.0725431976        0.6500218748
 C         -0.0427206552       -2.6922554160        0.7993328270
 C         -0.0212786689       -1.9119440258       -0.3352231815
 C         -1.1663000316        0.2232610196        0.2860195884
 C         -2.5055731310        0.0647255806        0.0207070207
 C         -3.4256092564        0.7121278431        0.8458936927
 N         -4.8078794189        0.5583345896        0.6098401288
 C         -5.5956972498        1.6590939229        0.2700752897
 C         -5.0567216561        2.9244210192        0.0742044249
 C         -5.8681154672        3.9989246031       -0.2571313625
 C         -7.2283454114        3.8252412134       -0.4096550035
 C         -7.7776873532        2.5610280171       -0.2513042246
 C         -6.9729693208        1.4864518286        0.0770199820
 O         -7.5833202105        0.2613827951        0.1872043672
 C         -6.7860864824       -0.8191409391        0.4758561399
 C         -7.4080530129       -2.0506521231        0.5560460316
 C         -6.6771581152       -3.1857142359        0.8761489992
 C         -5.3259434083       -3.0734932151        1.1303305278
 C         -4.6960698608       -1.8406882699        1.0485611545
 C         -5.4075340874       -0.6993337296        0.7001951433
 C         -2.9885311890        1.5037178961        1.9070438068
 C         -1.6391095484        1.6732395475        2.1600160922
 C         -0.7208071257        1.0279386484        1.3463832321
 H          7.8429136215        4.6666073923       -0.6370385088
 H          5.4017376589        4.9657408757       -0.3431757598
 H          3.9862233858        3.0511807311        0.2172458896
 H          8.8225652965        2.3946012909       -0.4035328446
 H          8.4806311409       -2.1050745975        0.2638482081
 H          7.1964998576       -4.1639927185        0.8013786443
 H          4.7782642996       -3.9812055828        1.3084550384
 H          3.6675189016       -1.8071253265        1.2398999763
 H          3.7376433759        1.9489381524        2.5495519511
 H          1.3282323596        2.2709931137        2.9930914762
 H          2.8476245812       -0.5679967415       -0.7962925977
 H          0.0584045876        1.9443684465       -2.0932309804
 H          0.0827101101        1.8782544934       -4.5680286520
 H          0.0530032997       -0.2648943259       -5.7584680897
 H         -0.0009448363       -2.3968859631       -4.5131636009
 H         -0.0607038674       -4.3209590624       -2.7327988754
 H         -0.0993106093       -5.7254406927       -0.7025766668
 H         -0.0873671919       -4.7032782401        1.5264101645
 H         -0.0386728180       -2.2412302231        1.7815205996
 H         -2.8453101338       -0.5425262013       -0.8052488556
 H         -3.9927843495        3.0697303148        0.1758704540
 H         -5.4225742739        4.9718497369       -0.3968415564
 H         -7.8648841878        4.6585393709       -0.6613036583
 H         -8.8336382261        2.3870752625       -0.3829167950
 H         -8.4688840953       -2.0997581755        0.3701531202
 H         -7.1711920165       -4.1426057436        0.9336617641
 H         -4.7452628816       -3.9429534269        1.3972467063
 H         -3.6420572805       -1.7683943813        1.2646427343
 H         -3.7233517200        1.9856647789        2.5350463879
 H         -1.3123509240        2.2892129836        2.9840821843
  83
  -133.786314034100       0.124702822284614      !
 C          7.3060492542        3.7946848261        0.2790724582
 C          5.9448467095        3.9614364301        0.4323439628
 C          5.1122440775        2.8589917590        0.5521861568
 C          5.6306699589        1.5701351866        0.5337766922
 C          7.0102706220        1.4114492738        0.3456880694
 C          7.8358819583        2.5134171964        0.2262008705
 O          7.6028888986        0.1761253902        0.2574470980
 C          6.7851061699       -0.9246974280        0.3304150188
 C          7.3920757288       -2.1607245850        0.2122933219
 C          6.6400442313       -3.3230362069        0.3024523406
 C          5.2819386217       -3.2359889638        0.5273499330
 C          4.6678195312       -1.9984344295        0.6478282407
 C          5.4015669515       -0.8241080034        0.5322168376
 N          4.8197562386        0.4403396159        0.6522602779
 C          3.4387426013        0.5727046880        0.9061476427
 C          3.0067970968        1.1751008849        2.0870538361
 C          1.6587430813        1.3017264306        2.3698211024
 C          0.7363024071        0.7999440952        1.4648263339
 C          1.1759283507        0.1923019848        0.2783188416
 C          2.5139923816        0.0838142921       -0.0172381172
 C          0.0061797223       -0.3157824741       -0.5251181466
 C         -0.1062094784        0.2482395012       -1.9211796588
 C         -0.2413197721        1.5655788901       -2.2999289255
 C         -0.3681128815        1.8537332216       -3.6523821128
 C         -0.3599011722        0.8390718888       -4.5976878633
 C         -0.2245305419       -0.4872412338       -4.2189782407
 C         -0.0991987969       -0.7825872634       -2.8715843021
 C          0.0413777513       -2.0518970403       -2.1743264815
 C          0.1256079347       -3.3514025352       -2.6460881972
 C          0.2700849265       -4.3817162127       -1.7304694937
 C          0.3287566910       -4.1234515828       -0.3692048648
 C          0.2428160421       -2.8235424887        0.1114940768
 C          0.0979210421       -1.7981733835       -0.7965667362
 C         -1.1597178613        0.0920412677        0.3395893167
 C         -2.4991089124       -0.0860422540        0.0867469336
 C         -3.4199930220        0.4376202209        0.9944197491
 N         -4.8014499454        0.3188702261        0.7377721270
 C         -5.3691231660        0.9235710490       -0.3867376209
 C         -4.6157705004        1.6261477878       -1.3193837605
 C         -5.2168330012        2.2151617566       -2.4215589345
 C         -6.5814509271        2.1251458372       -2.6051595794
 C         -7.3520322640        1.4507458942       -1.6691530882
 C         -6.7578772537        0.8608505351       -0.5693763482
 O         -7.5935309568        0.2381255398        0.3252225073
 C         -7.0162886949       -0.3729090905        1.4104741278
 C         -7.8613590470       -1.0295458058        2.2851306967
 C         -7.3479531690       -1.6937193748        3.3897579326
 C         -5.9844166265       -1.7117758807        3.5985996909
 C         -5.1323234551       -1.0540792009        2.7244861067
 C         -5.6331287942       -0.3550802554        1.6333867671
 C         -2.9825523492        1.0980043567        2.1421125057
 C         -1.6333837438        1.2533330051        2.4039388746
 C         -0.7144632077        0.7578646697        1.4917049096
 H          7.9586930923        4.6486265858        0.1900451320
 H          5.5152227065        4.9509801784        0.4583505957
 H          4.0482808966        3.0016531089        0.6554864939
 H          8.8924406163        2.3478328211        0.0887609096
 H          8.4586120548       -2.1923347574        0.0558290461
 H          7.1220412507       -4.2826870851        0.2053261108
 H          4.6823922647       -4.1293724780        0.6127885018
 H          3.6077602021       -1.9506549910        0.8395916644
 H          3.7444441733        1.5388155611        2.7871878704
 H          1.3360763205        1.7677820009        3.2884992041
 H          2.8495714353       -0.3734861694       -0.9362737383
 H         -0.2516415636        2.3549331149       -1.5618667889
 H         -0.4771393036        2.8798552146       -3.9710079468
 H         -0.4619758732        1.0871309101       -5.6439721442
 H         -0.2208725720       -1.2730364352       -4.9594430053
 H          0.0836343324       -3.5583302985       -3.7050518841
 H          0.3411597983       -5.4007076914       -2.0813974299
 H          0.4446387267       -4.9423422239        0.3252725755
 H          0.2891983754       -2.6208651293        1.1720075391
 H         -2.8379081633       -0.6086659452       -0.7954997885
 H         -3.5509067276        1.7246354076       -1.1841118755
 H         -4.6034536807        2.7499061046       -3.1303067160
 H         -7.0536865178        2.5789233153       -3.4615838805
 H         -8.4225619775        1.3752931426       -1.7717285079
 H         -8.9205618596       -1.0105850269        2.0832760710
 H         -8.0159208474       -2.1971253541        4.0703753552
 H         -5.5684098928       -2.2394747675        4.4426192811
 H         -4.0664217006       -1.0901225129        2.8877672542
 H         -3.7171848647        1.4970648484        2.8260768032
 H         -1.3071569604        1.7686654555        3.2945954546
  83
  -133.784898445100       2.788153125812378E-002 !
 C          7.2732579321        3.7496078750       -0.0621203677
 C          5.9116221387        3.9215339922        0.0796640716
 C          5.0876525163        2.8301551705        0.3106390947
 C          5.6170084731        1.5502195469        0.4132796580
 C          6.9978886031        1.3827613812        0.2430191227
 C          7.8142103408        2.4737113722        0.0133726465
 O          7.5989907117        0.1483369572        0.2832634205
 C          6.7894416008       -0.9443253834        0.4785975365
 C          7.4037124158       -2.1818743567        0.5068957831
 C          6.6559294439       -3.3308792096        0.7224514673
 C          5.2941269501       -3.2288305936        0.9183692011
 C          4.6720720528       -1.9894915551        0.8915197106
 C          5.4037583827       -0.8319050752        0.6586494424
 N          4.8142555037        0.4327359969        0.6371416686
 C          3.4319319357        0.5787970380        0.8874956703
 C          3.0035874525        1.2124173261        2.0522771872
 C          1.6558194216        1.3370959717        2.3385084396
 C          0.7329586064        0.8150403582        1.4456084389
 C          1.1696941929        0.1930583988        0.2656195329
 C          2.5079468677        0.0699542147       -0.0246247486
 C         -0.0034404191       -0.2984431786       -0.5436444454
 C         -0.0798619582        0.2758498096       -1.9382278895
 C         -0.1782665134        1.5978495925       -2.3115862405
 C         -0.2563134288        1.8970942910       -3.6653316996
 C         -0.2364903614        0.8888075102       -4.6171307855
 C         -0.1384214098       -0.4422408661       -4.2437337130
 C         -0.0612591221       -0.7486483313       -2.8951885878
 C          0.0379439716       -2.0246417889       -2.2031835771
 C          0.1077874967       -3.3224349960       -2.6819747458
 C          0.2067946159       -4.3615512502       -1.7702924852
 C          0.2345509239       -4.1134580543       -0.4062338225
 C          0.1634251232       -2.8152029630        0.0814249028
 C          0.0646541282       -1.7809765128       -0.8226880535
 C         -1.1674244503        0.1189081315        0.3185199162
 C         -2.5086611143       -0.0503058473        0.0677875711
 C         -3.4227466339        0.4451638128        0.9970823046
 N         -4.8077947331        0.3230352555        0.7492269253
 C         -5.4007627308        1.0279011677       -0.2990224202
 C         -4.6705124407        1.8445528055       -1.1530241205
 C         -5.2961061318        2.5404137891       -2.1767179142
 C         -6.6599147495        2.4389788634       -2.3582011802
 C         -7.4061463350        1.6416105654       -1.5020294923
 C         -6.7884387011        0.9458983455       -0.4802734098
 O         -7.5965930467        0.1969329529        0.3403764000
 C         -6.9916723205       -0.5113063531        1.3498837106
 C         -7.8063351228       -1.2918450633        2.1477617340
 C         -7.2616268655       -2.0517158222        3.1735508915
 C         -5.8979738850       -2.0349596128        3.3833412885
 C         -5.0757028496       -1.2529683567        2.5858951267
 C         -5.6086640804       -0.4677469773        1.5718039229
 C         -2.9818315751        1.0766408610        2.1583696623
 C         -1.6311477215        1.2412989678        2.4083247473
 C         -0.7180599476        0.7697539042        1.4780332903
 H          7.9189430484        4.5950101389       -0.2394114339
 H          5.4750558335        4.9058878295        0.0079006146
 H          4.0224191170        2.9717884196        0.4061696120
 H          8.8723214788        2.3045863127       -0.1068927462
 H          8.4715290365       -2.2255556747        0.3636843929
 H          7.1447916709       -4.2919465980        0.7431516383
 H          4.6995571516       -4.1114953231        1.0975960561
 H          3.6085879534       -1.9240031568        1.0589432007
 H          3.7434019856        1.5992475945        2.7376358133
 H          1.3339209222        1.8210483189        3.2481010436
 H          2.8447478762       -0.4116052288       -0.9307306330
 H         -0.1940333347        2.3826608585       -1.5688604650
 H         -0.3347972935        2.9271069807       -3.9801185189
 H         -0.2988373810        1.1456519629       -5.6643715915
 H         -0.1246649179       -1.2232065989       -4.9892602773
 H          0.0887908883       -3.5214370240       -3.7430778545
 H          0.2639056237       -5.3796583831       -2.1263153054
 H          0.3131146282       -4.9392607495        0.2851944249
 H          0.1863845538       -2.6205913351        1.1441702330
 H         -2.8551097607       -0.5478782674       -0.8259495911
 H         -3.6054800799        1.9443506887       -1.0150220080
 H         -4.7027303411        3.1648300199       -2.8268122820
 H         -7.1514438973        2.9783069307       -3.1522654002
 H         -8.4754720000        1.5519034487       -1.6075716714
 H         -8.8661114063       -1.2945264670        1.9490646002
 H         -7.9058951497       -2.6564510235        3.7918301807
 H         -5.4586395571       -2.6324331788        4.1673832159
 H         -4.0091860677       -1.2554270774        2.7485651329
 H         -3.7142023047        1.4460907358        2.8610781993
 H         -1.2994843710        1.7405115815        3.3060861987
