  106
       -162.39112284
 C         -5.5275827160       -5.2637564847       -0.5406424941
 C         -4.5967669747       -4.7502928652       -1.4277371570
 C         -4.1967225160       -3.4305518319       -1.3271086846
 C         -4.7285351202       -2.6023216587       -0.3427205909
 C         -4.2795033209       -1.2034721113       -0.2294679565
 C         -2.9254613681       -0.9383312380       -0.1994923537
 C         -2.4201583290        0.3626092500       -0.0665542755
 C         -0.9917830465        0.5683966200       -0.1088708746
 C         -0.1170295904       -0.3807480393        0.4702941303
 C          1.2366130521       -0.2282676847        0.4469737966
 C          1.8341553762        0.8977251400       -0.1905772757
 C          3.2107038779        1.1396413494       -0.2777277025
 N          3.7113031209        2.3738265028       -0.4785678592
 C          5.0234896255        2.2784995441       -0.3422657947
 C          5.9781392661        3.3369727488       -0.3707862807
 C          5.5657680343        4.6645917216       -0.5045767836
 C          6.4889246388        5.6867973968       -0.4751819370
 C          7.8327392455        5.3813638118       -0.3003079851
 C          8.2505849766        4.0707914285       -0.1755467248
 C          7.3439799777        3.0051920685       -0.2187875660
 C          7.7545677919        1.6113340935       -0.1407459264
 C          9.1018250068        1.2500023618       -0.1296802461
 C          9.5124783462       -0.0676642566       -0.1094757215
 C          8.5660445760       -1.0909779882       -0.1268919999
 C          7.2310389280       -0.7850057707       -0.1277725421
 C          6.7831574714        0.5555925977       -0.1098844889
 C          5.4255524664        0.9221130032       -0.1181476357
 N          4.2558859030        0.2068971959       -0.0782998431
 C          4.0661853848       -1.1700609763        0.0333948487
 C          4.5793947476       -1.8833773814        1.1208542239
 C          4.3516966267       -3.2367139238        1.2279713897
 C          3.6017625305       -3.9217494735        0.2652954745
 C          3.3526253461       -5.3549888410        0.3890041105
 C          4.3097581034       -6.2324477463        0.9061273917
 C          4.0183868761       -7.5804336718        0.9960874995
 C          2.7761100262       -8.0204534095        0.5614387131
 N          1.8543497124       -7.2031046496        0.0769328717
 C          2.1329376939       -5.9186024540       -0.0027247407
 C          3.0891792530       -3.1971197437       -0.8156950615
 C          3.3150709504       -1.8454630169       -0.9344226093
 C          0.9494854422        1.8695858316       -0.7471029579
 C         -0.3992978314        1.7017124593       -0.7211696209
 C         -3.3444859845        1.4245578947        0.0811717341
 C         -2.8701165351        2.7944047659        0.3428943906
 C         -2.0114428397        3.0384369839        1.4132349402
 C         -1.5696658964        4.3199900624        1.6798134474
 C         -1.9755716541        5.3763930703        0.8812644281
 C         -2.8277270252        5.1434201007       -0.1857049783
 C         -3.2756526612        3.8637929545       -0.4524216960
 C         -4.7138952962        1.1640630259        0.0465287593
 C         -5.6783762890        2.2761773118        0.1922543473
 C         -5.6864855194        3.0613581736        1.3403466548
 C         -6.5922460174        4.0970280201        1.4732866561
 C         -7.4985074026        4.3633459350        0.4608490624
 C         -7.4969052473        3.5861008421       -0.6849922265
 C         -6.5946685877        2.5473078148       -0.8183487567
 C         -5.1961053080       -0.1413901984       -0.1178570124
 C         -6.6426033910       -0.4027740425       -0.1804995694
 C         -7.4974282773        0.0289270603        0.8311202211
 C         -8.8535917538       -0.2248935238        0.7583243001
 C         -9.3784777204       -0.9085060894       -0.3259561050
 C         -8.5364563897       -1.3422964982       -1.3365674199
 C         -7.1791576652       -1.0955459126       -1.2639311573
 C         -5.6577824420       -3.1301330019        0.5498378795
 C         -6.0526084917       -4.4507057363        0.4501577724
 H         -5.8402488810       -6.2943112984       -0.6192454851
 H         -4.1807834126       -5.3803586262       -2.2004262761
 H         -3.4783950913       -3.0284571898       -2.0277401598
 H         -2.2343500831       -1.7608589967       -0.3052593572
 H         -0.5390991180       -1.2201425245        1.0037094204
 H          1.8538979033       -0.9333889334        0.9785427735
 H          4.5102957846        4.8556235084       -0.6200990645
 H          6.1731815758        6.7140303670       -0.5772615354
 H          8.5635818138        6.1758975423       -0.2614210656
 H          9.3038635945        3.8864583560       -0.0363014879
 H          9.8619688388        2.0141961847       -0.1527992857
 H         10.5657086856       -0.3039901153       -0.0995048992
 H          8.8844513091       -2.1226770291       -0.1461910431
 H          6.5061321550       -1.5803216520       -0.1693871485
 H          5.1389170624       -1.3590360143        1.8819315781
 H          4.7291389027       -3.7696351634        2.0879277963
 H          5.2778179247       -5.8604233489        1.2102468818
 H          4.7419179189       -8.2792877235        1.3871030106
 H          2.5017772807       -9.0658480796        0.6000883247
 H          1.3343483829       -5.2938187759       -0.3816969592
 H          2.5310126764       -3.7113945582       -1.5830870113
 H          2.9230516363       -1.2944621490       -1.7759233207
 H          1.3947700497        2.7251770474       -1.2283528518
 H         -1.0327482543        2.4225012405       -1.2126636631
 H         -1.7006191488        2.2159573640        2.0412946811
 H         -0.9059442683        4.4959594920        2.5136191444
 H         -1.6283945569        6.3775284127        1.0889632131
 H         -3.1440425429        5.9629170952       -0.8144375670
 H         -3.9291885664        3.6843774706       -1.2933292868
 H         -4.9837797755        2.8515263170        2.1338417838
 H         -6.5909270870        4.6985438223        2.3706146591
 H         -8.2044802898        5.1739275710        0.5648950226
 H         -8.2016361378        3.7895330439       -1.4780485334
 H         -6.5917631568        1.9440911840       -1.7148408005
 H         -7.0915613819        0.5509985224        1.6849867618
 H         -9.5044312108        0.1112111948        1.5523710837
 H        -10.4390726347       -1.1036887021       -0.3823494554
 H         -8.9397248400       -1.8752758772       -2.1852882092
 H         -6.5257311050       -1.4283020035       -2.0572886466
 H         -6.0613639392       -2.5041200114        1.3313784505
 H         -6.7736899825       -4.8477060542        1.1496518913
