88
 energy: -145.582227210056 gnorm: 0.000063368509 xtb: 6.7.1 (edcfbbe)
O            0.09959318886392        1.60036663808994        1.20857617536591
C           -0.44206141165365        1.13224618244826        0.21922417982615
C           -1.79918631402428        0.55107584393177        0.27538605381240
C           -2.57745691568389        0.37143517801409       -0.87069201432117
C           -3.85494348230116       -0.13759026390968       -0.77207872024184
C           -4.38416705363975       -0.48113435625736        0.47282475812720
N           -5.68840222947263       -0.99884720384922        0.56641298278599
C           -6.67650928290207       -0.32280841032535        1.29223322958226
C           -6.43719488265260        0.89074354089793        1.92646768702607
C           -7.44231539182052        1.53795770162204        2.62895380327609
C           -8.70851215429506        0.99234987190901        2.69977039134503
C           -8.97402982303118       -0.20017044353256        2.04341094404288
C           -7.97454148589716       -0.84864285353166        1.34071765858187
O           -8.32906011138628       -2.00541261241413        0.68790619184885
C           -7.34938999331396       -2.65538105848669       -0.02424667636606
C           -7.71648256004137       -3.82461012926540       -0.66581995669422
C           -6.77729729613753       -4.55906558919660       -1.37442483893654
C           -5.46738433328868       -4.12496883101622       -1.41677382044178
C           -5.09581210804810       -2.95244941547082       -0.77686828105855
C           -6.03181771622141       -2.18422141235353       -0.09419477272953
C           -3.61177186061151       -0.30018697286271        1.62102402798264
C           -2.33842083350057        0.21610176765747        1.51996478931035
C            0.24280498542434        1.08334685274246       -1.10316119340365
C            0.37059519860510       -0.14412165137989       -1.74821253161640
C            1.07327265604003       -0.24705508882967       -2.93428603888837
C            1.63752473251402        0.88532743330039       -3.50012309435072
C            1.51065494848796        2.10960709219772       -2.87079852014952
C            0.83178029938926        2.22472745688448       -1.66053536424509
C            0.67965083219117        3.54242184674387       -1.02265106141850
C           -0.58357639359263        3.98581193911368       -0.64152685427888
C           -0.76293927215471        5.24217010431183       -0.09309230036086
C            0.31994614740121        6.09304041687009        0.06223823227711
C            1.57736834149245        5.67675818642728       -0.33111823615504
C            1.77402400225749        4.40224169503702       -0.85649222136995
C            3.15874350393485        4.01953202436432       -1.24112441917751
O            3.87086964925524        4.78709938543571       -1.87223853684580
C            3.64678285414132        2.69635297036183       -0.79818127851119
C            3.14052940937955        2.06664344315760        0.33864446576507
C            3.64107322843816        0.84419446941161        0.73502477499365
C            4.64725601421198        0.22027399448749       -0.00121131434528
N            5.14536973666666       -1.03635548619462        0.39363811691407
C            4.30286681668854       -2.15105295439786        0.46092215405675
C            2.95514198583264       -2.08874698143968        0.12651270850528
C            2.15164107934551       -3.21650849391365        0.19982632638737
C            2.67990728328491       -4.42923810340991        0.59431579494645
C            4.03017147220991       -4.51650433971048        0.89883014295026
C            4.83603016730540       -3.39479497816310        0.82679965404876
O            6.16916093050723       -3.57345376084090        1.11090194568488
C            6.98120535778270       -2.46511116995013        1.05699606011182
C            8.31381459473050       -2.65291315694773        1.37564727208032
C            9.19123565707951       -1.57866559509016        1.37801289517388
C            8.71829163135686       -0.31610800104602        1.08079772081248
C            7.38312463373714       -0.12397970248835        0.75982051682636
C            6.49825996953076       -1.19510350585415        0.71493397225199
C            5.16421588167621        0.85353165339694       -1.13156514269886
C            4.67747460952054        2.08428355621964       -1.51341300189361
H           -2.18982474299514        0.65563677463673       -1.83728335187818
H           -4.46109661632727       -0.26053402651650       -1.65725903552340
H           -5.45984179174266        1.34209116598684        1.86480150371443
H           -7.22381556077221        2.47604612774414        3.11566588435762
H           -9.49363984505688        1.48911534265900        3.24758652741080
H           -9.95682744049458       -0.64459816761298        2.05834987730647
H           -8.74374303203740       -4.14549048386576       -0.59218659748633
H           -7.07381908704029       -5.46758488401127       -1.87443615606818
H           -4.71961790805149       -4.69691966289032       -1.94423550100861
H           -4.06502514113559       -2.63698975345908       -0.80303933688629
H           -4.01595469653665       -0.57480470212933        2.58384554275139
H           -1.72825242999109        0.35794999006676        2.39986215839062
H           -0.07059723991770       -1.02249064580161       -1.30105710572415
H            1.17670588719449       -1.20669510158134       -3.41724553583242
H            2.17507723293094        0.81551151577632       -4.43368604401815
H            1.93267523006433        2.99665066457907       -3.32131113480354
H           -1.43637987855751        3.33912488054202       -0.79193583225701
H           -1.75108242727043        5.56213703773776        0.20219930379189
H            0.18386788307353        7.07829330681065        0.48170083421827
H            2.43349122874582        6.32756889878879       -0.22499114514063
H            2.36319511618501        2.53483946523556        0.92259305668860
H            3.25670051068778        0.36892753624135        1.62511095424371
H            2.53045901669849       -1.15305687858919       -0.20104899343729
H            1.10679748846165       -3.13695812401172       -0.05722981263680
H            2.05829601795078       -5.30848270153339        0.65687862620276
H            4.48265727850865       -5.45116909250116        1.19094398265398
H            8.64330881878036       -3.64949388768546        1.62448702761844
H           10.22981878961537       -1.73520421766546        1.62321573932073
H            9.38212319230941        0.53455950331159        1.10003479632179
H            7.02534913621647        0.87122614031768        0.54845478185271
H            5.94231371704839        0.37124779340289       -1.70425246625968
H            5.06957239987010        2.58510746278359       -2.38643598392634
