88
 energy: -145.525250980677 gnorm: 0.000055119319 xtb: 6.7.1 (edcfbbe)
O            3.76137686577237       -0.85533859798420       -1.78242485265449
C            3.49840313215503       -1.20863613674698       -0.61071106034294
C            2.12591756361789       -1.51552925854670       -0.21972606976817
C            1.68116521943209       -1.61181285956281        1.10808935191533
C            0.37021999892759       -1.92736382044874        1.38854540243999
C           -0.53120979508213       -2.17893937959380        0.35160187378898
N           -1.87832912535276       -2.54450442360549        0.61205984400305
C           -2.78094378507503       -1.63097350107359        1.13165139640748
C           -2.39216605001903       -0.36233344931766        1.55803294590771
C           -3.32571172252582        0.52590775398015        2.05799221021242
C           -4.66498577256391        0.17711780857336        2.13285196832401
C           -5.07292307954774       -1.07355825035912        1.70424137585256
C           -4.14381684749812       -1.97453797337111        1.20853824022598
O           -4.61115949522772       -3.18417756816400        0.78677269982763
C           -3.70517370051227       -4.09512870803411        0.32649098535597
C           -4.18661906206318       -5.33870397677824       -0.05207931097455
C           -3.31337664978196       -6.30787646566341       -0.51449888383098
C           -1.95500900232153       -6.03529077873140       -0.58582479758460
C           -1.46646631079380       -4.79709822089387       -0.21413093942672
C           -2.33219620640726       -3.79924909747879        0.23479188749839
C           -0.10344384365846       -2.07967253018395       -0.97399303026694
C            1.19427716471395       -1.73227772177695       -1.25079312425831
C            4.59512806751685       -1.49356125485583        0.34271789524542
C            4.59707755090656       -2.65098017225941        1.11470758112207
C            5.66591250198415       -2.94671408065060        1.94189875684718
C            6.75075384759009       -2.08882560293865        2.00476300646527
C            6.76530856526589       -0.93841427570908        1.23404370105882
C            5.70077083035822       -0.63057991969928        0.39927974371283
C            5.70450120373888        0.60286735453588       -0.40217818564545
C            6.77186094933600        0.90529093776037       -1.23528667953601
C            6.76397474349696        2.05544641241494       -2.00650483335620
C            5.68290058014670        2.91825356651085       -1.94605031302991
C            4.61142010471917        2.62809702564373       -1.12029065323756
C            4.60299239138243        1.47125126486840       -0.34748123245074
C            3.50464430408294        1.19212325834650        0.60569206132436
O            3.76604219331657        0.83731031342317        1.77739500831065
C            2.13372130625816        1.50599028540007        0.21521521209706
C            1.20350794911200        1.72617429524984        1.24688030877076
C           -0.09263552605125        2.07987530132109        0.97093515597190
C           -0.52044319504556        2.18243044167397       -0.35442182438917
N           -1.86610320249098        2.55401345151746       -0.61373831401677
C           -2.31494368540646        3.80941770609850       -0.23264373958086
C           -1.44497748940487        4.80291606931831        0.21775536423923
C           -1.92854460870320        6.04177447904259        0.59370224934118
C           -3.28603412137587        6.31939288687144        0.52514722041412
C           -4.16339997489638        5.35470249168592        0.06115927346634
C           -3.68696226224865        4.11049896486217       -0.32167341969210
O           -4.59682595813347        3.20405267548852       -0.78317530208969
C           -4.13453501211245        1.99352855034977       -1.20796365119818
C           -5.06772015068892        1.09691971276005       -1.70392016604550
C           -4.66505970604389       -0.15440800613741       -2.13558738323847
C           -3.32696799508956       -0.50828796056082       -2.06345066570854
C           -2.38938454307171        0.37552301833596       -1.56319443059894
C           -2.77282263715549        1.64479202203140       -1.13380785432846
C            0.37941830859151        1.92776680508343       -1.39198419898312
C            1.68894985725447        1.60564908640296       -1.11235992729992
H            2.37089222029012       -1.39882979687069        1.91118317806400
H            0.03824432294445       -2.00099197560454        2.41395465031323
H           -1.35362799336415       -0.08229707284081        1.48864992733683
H           -3.00483834982651        1.49965725895059        2.39426919934719
H           -5.39018140626569        0.87434299003416        2.52072660449833
H           -6.10742795426436       -1.37405508377996        1.74202886557358
H           -5.24587075503300       -5.52348627204485        0.02682266862893
H           -3.69179939073061       -7.27349570713146       -0.80909566233918
H           -1.26788435891609       -6.79186140014719       -0.93091281429241
H           -0.40891189983549       -4.59275278128398       -0.26384493193843
H           -0.79613577061687       -2.28628790621895       -1.77604458992530
H            1.54289806022083       -1.63973655232424       -2.26902352178153
H            3.76262655747478       -3.33487438251678        1.04681358347894
H            5.65140326227789       -3.84942108327460        2.53549859369471
H            7.58582557760047       -2.31400287798149        2.65209331655719
H            7.60250405804587       -0.25683185491532        1.29052085648730
H            7.60594188080034        0.21976501140048       -1.29003474757761
H            7.60130710985348        2.27656730748038       -2.65232336321477
H            5.67348616125246        3.82059463524637       -2.54031503833820
H            3.78013097988616        3.31599717227519       -1.05411806779757
H            1.55211687849196        1.63089320934871        2.26485323769237
H           -0.78405083755712        2.28889976790620        1.77347315962225
H           -0.38808882406918        4.59465813191150        0.26532254701836
H           -1.23821202831681        6.79486420301806        0.93999357730125
H           -3.66058237399545        7.28547106827511        0.82314810228099
H           -5.22208739983958        5.54352743617951       -0.01563904524126
H           -6.10117887373174        1.40126382015817       -1.73943108938488
H           -5.39344594829895       -0.84822072184131       -2.52359081187757
H           -3.01018630400741       -1.48253485532886       -2.40214406765834
H           -1.35182686159680        0.09137328379193       -1.49586864484245
H            0.04742751688500        2.00416557384508       -2.41718617984526
H            2.37731286454550        1.39011918405870       -1.91593779569620
