88
 energy: -145.585873670357 gnorm: 0.000048881657 xtb: 6.7.1 (edcfbbe)
O            0.06985067968567       -1.64261875959620        2.03792409064063
C           -0.36482081368936       -1.37465535530425        0.92822258398399
C           -1.79858529706382       -1.09261346389423        0.70015888211038
C           -2.54451184074395       -0.51298317564158        1.72573274129542
C           -3.88557352279751       -0.24576876187770        1.55075419351711
C           -4.51260884995542       -0.58102736793170        0.35180898270677
N           -5.88380624862271       -0.31408505624093        0.16799707775493
C           -6.36665878788155        0.99730211060880        0.22518206762089
C           -5.52498387401757        2.09202523283680        0.38203475226870
C           -6.03649509018539        3.37999436513354        0.42998557820202
C           -7.39417159497618        3.59889088925411        0.30873892078146
C           -8.24408099203876        2.51983688602607        0.11503173762294
C           -7.73870699916797        1.23343644386248        0.06579262757515
O           -8.64069466340527        0.22111844575021       -0.16365001097024
C           -8.15234772378469       -1.06386585154826       -0.20349140017159
C           -9.07399204536861       -2.07495309386607       -0.40569337323638
C           -8.66641551146520       -3.40078803106883       -0.42457525576253
C           -7.33556912131364       -3.70444943742495       -0.21874069279266
C           -6.40777012724703       -2.69364973830515       -0.01788722308781
C           -6.79311498292615       -1.35832989994072       -0.03129333012948
C           -3.77663276129171       -1.18914022186452       -0.66436552444793
C           -2.43105744407978       -1.43792045530875       -0.49396542930507
C            0.51959520952924       -1.38935955357122       -0.26600557812083
C            1.44009368506974       -2.43019751512200       -0.36740898110639
C            2.25672472498829       -2.54901561086058       -1.47536410337045
C            2.16890763834898       -1.61240224339967       -2.49310021852669
C            1.28006644631157       -0.55877172549130       -2.38924184790130
C            0.45328596671124       -0.42159596419321       -1.27706654588392
C           -0.44184141253637        0.74577963340138       -1.19047571287086
C           -1.28436361183340        1.03088855363271       -2.26225893597573
C           -2.16790495646188        2.09282901806507       -2.21480468363467
C           -2.23294004018996        2.89063086470633       -1.08333922576319
C           -1.40270374682537        2.62312790112484       -0.01235731296723
C           -0.48896379492919        1.57189540356633       -0.05934590970255
C            0.39634367264942        1.39613288190536        1.12197639176931
O           -0.04069818346424        1.53364147238248        2.25501043636011
C            1.82500963347503        1.11346108848055        0.86990070422733
C            2.55142302103134        0.42015765579142        1.83783534170702
C            3.88294919738390        0.12630065749348        1.63759847582965
C            4.52147318052047        0.54230271559341        0.47003777069848
N            5.87688690978277        0.22908865289690        0.25304923821411
C            6.30028498336106       -1.10439460155597        0.21559906741274
C            5.41324260266815       -2.16978605349619        0.31570759930743
C            5.86679414543684       -3.47937258852508        0.27237398806913
C            7.21120708843536       -3.74956756311466        0.11267799573546
C            8.10528658569277       -2.69846470617524       -0.02700992162637
C            7.65729500971594       -1.39051120119809        0.01484796103049
O            8.60062159089268       -0.40728790193322       -0.16840752110964
C            8.17143397712166        0.89792671942909       -0.11722346915880
C            9.13587536905629        1.87671801387679       -0.27433104335382
C            8.79114088799419        3.21811556861881       -0.19901809309170
C            7.48061717641479        3.56799272060045        0.05803301404649
C            6.51027001874181        2.58977028713810        0.21370203958510
C            6.83090887772193        1.24172996954973        0.10302665935181
C            3.80853228225603        1.27188254849314       -0.48108293404036
C            2.47309228405853        1.55296254059127       -0.28435133974857
H           -2.04567826097425       -0.25971548930151        2.64957409489018
H           -4.45815199769222        0.21074484389163        2.34430726160139
H           -4.46055423491346        1.93726180000306        0.46092282086601
H           -5.36063357299954        4.21031369773716        0.56497207452898
H           -7.79811199096753        4.59812057775096        0.35117530063375
H           -9.30757834621950        2.65535248468760       -0.00451223375596
H          -10.10901501064288       -1.80242729636318       -0.54028695849014
H           -9.39184100423129       -4.18246246563217       -0.58602877475893
H           -7.00515085675822       -4.73178124015715       -0.20776923759692
H           -5.37506235061028       -2.94768271942875        0.16082043072540
H           -4.26695110822307       -1.45427553915781       -1.58905283734750
H           -1.86888251629969       -1.91529780954936       -1.28233087631250
H            1.48522425452925       -3.15177211597768        0.43587954266142
H            2.95769899990372       -3.36611982708052       -1.54655242907584
H            2.80282848191244       -1.69827778437438       -3.36264290614860
H            1.23642646078020        0.18765926286415       -3.16820621544598
H           -1.25658430517014        0.39241372131125       -3.13256065702745
H           -2.81541411202370        2.29330332941668       -3.05491889662691
H           -2.92709700007711        3.71534385793431       -1.03802092565544
H           -1.43347028028471        3.23278035327806        0.87948723441808
H            2.04296535420850        0.09951482495667        2.73505364291779
H            4.43875019415299       -0.41801970984436        2.38644177544355
H            4.35789926224979       -1.97518360790838        0.42149624658375
H            5.15597681605877       -4.28610341952318        0.36530482134113
H            7.57027613411654       -4.76624576091578        0.08444904638075
H            9.15963156899651       -2.87203690315279       -0.17489094350359
H           10.15391970509868        1.56570462227003       -0.44909649353102
H            9.54931192783381        3.97454482660606       -0.32658107396706
H            7.19939595047016        4.60634460970780        0.14417504220394
H            5.49508343656044        2.87885248175870        0.43438478730965
H            4.30699218303669        1.60290018249650       -1.37974911738300
H            1.93084357588450        2.12509971291513       -1.02180904202436
