  63
  -99.3033057095000       0.257701910789352      !
 C         -4.9665655795        4.2926754239       -0.0121700487
 C         -3.5874299582        4.3864563513        0.0721507872
 C         -2.8114663713        3.2404742416        0.0735544124
 C         -3.4226275322        1.9972303716       -0.0090972958
 N         -2.6188904107        0.8206838411       -0.0059637907
 C         -2.2716012400        0.2424440737       -1.2118007212
 C         -2.7653210731        0.7580752289       -2.4146266418
 C         -2.4490943249        0.1624631018       -3.6167838833
 C         -1.6367931573       -0.9610084694       -3.6499777057
 C         -1.1290985578       -1.4662678594       -2.4690511965
 C         -1.4341598760       -0.8797247244       -1.2484806131
 C         -0.7871133461       -1.3913801047        0.0074232797
 C         -0.6023561055       -2.8921840596        0.0079579663
 C         -1.5702919925       -3.8682255934        0.0099325120
 C         -1.1700637258       -5.2010059765        0.0071363895
 C          0.1765581536       -5.5379509620        0.0022412074
 C          1.1591703856       -4.5636664233       -0.0003227788
 C          0.7631930452       -3.2307018870        0.0024748917
 C          1.5403248516       -2.0245063112        0.0013339225
 N          2.8405514916       -1.8163241110       -0.0076007117
 C          3.3420775174       -0.5815425608       -0.0052631032
 C          4.6990990687       -0.3280361224       -0.0182859157
 C          5.2171980850        0.9792283745       -0.0096980303
 C          6.6019033164        1.2321735238       -0.0230311061
 C          7.0828797376        2.5163563769       -0.0094214742
 C          6.2000583064        3.6007845978        0.0179074952
 C          4.8443082519        3.3875536504        0.0297624697
 C          4.3195943425        2.0840051371        0.0151719256
 C          2.9315055186        1.8353912047        0.0237690841
 C          2.4207426714        0.5609767040        0.0125778881
 N          1.0983820325        0.3072558871        0.0169374729
 C          0.6629312913       -0.9115911784        0.0101006690
 C         -1.4487785867       -0.8778127766        1.2542179385
 C         -1.1587221553       -1.4619826388        2.4795759194
 C         -1.6928892882       -0.9632709173        3.6516124311
 C         -2.5232498288        0.1464638572        3.6041315368
 C         -2.8231052149        0.7407822806        2.3971665414
 C         -2.2928170095        0.2387097995        1.2041160109
 C         -4.8058853721        1.9003573668       -0.0925662519
 C         -5.5744222372        3.0507278141       -0.0945599942
 H         -5.5692741191        5.1882761879       -0.0136584822
 H         -3.1138250317        5.3544795408        0.1355535096
 H         -1.7353657984        3.2968895511        0.1386886971
 H         -3.3961158391        1.6335565274       -2.4003522351
 H         -2.8389457484        0.5774568078       -4.5340680236
 H         -1.3909533651       -1.4300118571       -4.5898555820
 H         -0.4781430202       -2.3279951760       -2.4861970063
 H         -2.6183641951       -3.6060299028        0.0140399720
 H         -1.9164647214       -5.9810342986        0.0090291777
 H          0.4618633034       -6.5798780398        0.0002953312
 H          2.2071884751       -4.8191191982       -0.0044293338
 H          5.3749573859       -1.1696556228       -0.0333989455
 H          7.2816627454        0.3925152211       -0.0435797090
 H          8.1480500980        2.6969801587       -0.0202804707
 H          6.5920178867        4.6074257276        0.0300792418
 H          4.1589419936        4.2230451333        0.0504344144
 H          2.2422032162        2.6666181036        0.0384014069
 H         -0.4994105138       -2.3171034512        2.5072720500
 H         -1.4573197191       -1.4291785837        4.5956430248
 H         -2.9408303879        0.5510477823        4.5138184936
 H         -3.4715372307        1.6030593328        2.3707627528
 H         -5.2676692690        0.9259377186       -0.1553597668
 H         -6.6494840497        2.9769251557       -0.1599216427
  63
  -99.3032051930000       0.231698623519016      !
 C         -4.0753904893        4.6509193270       -0.0032105734
 C         -2.7046109032        4.4588297563        0.0447287465
 C         -2.1823683349        3.1772271205        0.0412809635
 C         -3.0391170145        2.0867518165       -0.0098979773
 N         -2.4833742439        0.7757610810       -0.0114444863
 C         -2.2653914047        0.1353753812       -1.2160699118
 C         -2.7686732342        0.6643015012       -2.4080916873
 C         -2.5861136012       -0.0019445107       -3.6013838380
 C         -1.9011847308       -1.2072703187       -3.6341895861
 C         -1.3788146257       -1.7260157833       -2.4647130520
 C         -1.5513631105       -1.0701455824       -1.2545952765
 C         -0.8731034447       -1.5641486776       -0.0088345527
 C         -0.5978580803       -3.0480433835       -0.0040139996
 C         -1.5032316567       -4.0832002039       -0.0009812232
 C         -1.0212030833       -5.3884849226        0.0050209315
 C          0.3438372000       -5.6411047518        0.0080871551
 C          1.2638938809       -4.6074580740        0.0055093724
 C          0.7863480878       -3.3016062487       -0.0005801000
 C          1.4881022253       -2.0496324359       -0.0030222097
 N          2.7728715861       -1.7598726382        0.0034862481
 C          3.1949134222       -0.4954063330        0.0050637290
 C          4.5336275627       -0.1574670118        0.0172914461
 C          4.9687169925        1.1797405600        0.0213044935
 C          6.3349620179        1.5185580611        0.0378414660
 C          6.7345991260        2.8306680369        0.0427090707
 C          5.7855238672        3.8582016918        0.0300948803
 C          4.4458312905        3.5605062041        0.0135893236
 C          4.0037787320        2.2266108795        0.0094094529
 C          2.6340580729        1.8913922171       -0.0042457309
 C          2.2042774194        0.5872528803       -0.0050196588
 N          0.8996761796        0.2516899471       -0.0128799068
 C          0.5448176095       -0.9936434962       -0.0107067230
 C         -1.5433289352       -1.0623473167        1.2384286323
 C         -1.3627516908       -1.7092337120        2.4521758894
 C         -1.8797044365       -1.1828429854        3.6206513419
 C         -2.5704888440        0.0190221856        3.5825566280
 C         -2.7611983356        0.6760556473        2.3854517250
 C         -2.2580092465        0.1422688167        1.1955455188
 C         -4.4145818982        2.2761279033       -0.0567085704
 C         -4.9286792460        3.5607139361       -0.0538598203
 H         -4.4805216452        5.6515855983       -0.0005732252
 H         -2.0402840299        5.3088453206        0.0840955746
 H         -1.1168863570        3.0066440506        0.0778913085
 H         -3.3014164518        1.6027097560       -2.3930690734
 H         -2.9813389970        0.4219359025       -4.5123376861
 H         -1.7612036227       -1.7301051522       -4.5674715519
 H         -0.8201027203       -2.6500420338       -2.4855592800
 H         -2.5655250008       -3.8862693845       -0.0032589056
 H         -1.7179721756       -6.2132426941        0.0074606098
 H          0.6932969442       -6.6633264221        0.0127309336
 H          2.3256409731       -4.7977362561        0.0082487528
 H          5.2610541018       -0.9554451366        0.0254080110
 H          7.0660008320        0.7227049998        0.0470347260
 H          7.7863217298        3.0774618464        0.0565554683
 H          6.1136701610        4.8874619699        0.0352117908
 H          3.7096771618        4.3518810026        0.0046110708
 H          1.8950837966        2.6795117648       -0.0131671410
 H         -0.8023941318       -2.6321592246        2.4767212621
 H         -1.7325417550       -1.6981040402        4.5570445506
 H         -2.9645321218        0.4467528920        4.4921663631
 H         -3.3012506275        1.6102646643        2.3647810009
 H         -5.0694093921        1.4177599736       -0.0941392252
 H         -5.9974869824        3.7102243186       -0.0888124731
  63
  -99.3024254397000       0.101525152021042      !
 C         -5.3194602123        4.0902870435        0.0122925978
 C         -3.9531651404        4.3019208450        0.0940301321
 C         -3.0813148533        3.2271886152        0.0828139770
 C         -3.5833200781        1.9363557947       -0.0099950711
 N         -2.6846991165        0.8304618421       -0.0115017263
 C         -2.2926065865        0.2845576416       -1.2187178215
 C         -2.7997688113        0.7874809480       -2.4216526290
 C         -2.4334313294        0.2292410035       -3.6274164822
 C         -1.5555216207       -0.8436930441       -3.6649880716
 C         -1.0385717099       -1.3378481866       -2.4836231853
 C         -1.3942544631       -0.7887655410       -1.2590561202
 C         -0.7494537054       -1.3053409879       -0.0043306486
 C         -0.6077278739       -2.8119835266        0.0007167816
 C         -1.6041802434       -3.7584548927        0.0036505234
 C         -1.2435752884       -5.1024313958        0.0079667216
 C          0.0925391677       -5.4787713864        0.0092030405
 C          1.1035698526       -4.5340705523        0.0078680810
 C          0.7471837785       -3.1899638626        0.0040684664
 C          1.5588478905       -2.0066628054        0.0026320963
 N          2.8645933876       -1.8360460919        0.0089247608
 C          3.4017997931       -0.6164965693        0.0070580060
 C          4.7655638495       -0.4018904327        0.0183949570
 C          5.3207051288        0.8901969106        0.0159497585
 C          6.7121189973        1.1034781770        0.0320992509
 C          7.2293703244        2.3736583599        0.0293549603
 C          6.3775601179        3.4831998943        0.0086156718
 C          5.0163678498        3.3086759480       -0.0073031783
 C          4.4549122368        2.0204136793       -0.0026380824
 C          3.0603364957        1.8115883705       -0.0135594173
 C          2.5133601602        0.5522564091       -0.0068640721
 N          1.1845212070        0.3364610790       -0.0110886375
 C          0.7131370549       -0.8687682089       -0.0049639770
 C         -1.3963723539       -0.7828400560        1.2470014340
 C         -1.0450930752       -1.3270226218        2.4750193360
 C         -1.5761933914       -0.8366438749        3.6516583807
 C         -2.4696703290        0.2229913078        3.6055139813
 C         -2.8307414702        0.7770618645        2.3963242937
 C         -2.3002940388        0.2852289888        1.1987570566
 C         -4.9532123716        1.7215716390       -0.0930336463
 C         -5.8181930302        2.8013217304       -0.0821933851
 H         -5.9969692560        4.9306400722        0.0220461156
 H         -3.5644949230        5.3065322550        0.1669663157
 H         -2.0139899047        3.3764326678        0.1475745322
 H         -3.4801755571        1.6250438327       -2.4039900912
 H         -2.8344970606        0.6345074646       -4.5442616137
 H         -1.2690796870       -1.2828931990       -4.6078412845
 H         -0.3417069195       -2.1631119153       -2.5022754890
 H         -2.6439607089       -3.4651580263        0.0021616724
 H         -2.0126388016       -5.8601387456        0.0103927619
 H          0.3470312393       -6.5287157990        0.0122430467
 H          2.1436005555       -4.8207060000        0.0092893818
 H          5.4173200266       -1.2625182820        0.0295364968
 H          7.3677850871        0.2446916455        0.0472539383
 H          8.2991819231        2.5238191213        0.0422775207
 H          6.7978931260        4.4784017770        0.0053517668
 H          4.3548017881        4.1633977714       -0.0227780635
 H          2.3946415464        2.6617580441       -0.0256788887
 H         -0.3416265660       -2.1464720007        2.5002894797
 H         -1.2921747733       -1.2713307839        4.5972637528
 H         -2.8885071841        0.6201650699        4.5178999753
 H         -3.5277924074        1.6006620356        2.3718050641
 H         -5.3292532157        0.7116674701       -0.1654524688
 H         -6.8829041347        2.6355781801       -0.1471227324
  63
  -99.3024231960000       0.101284389650302      !
 C         -3.2891923985        4.8393671020        0.0747033609
 C         -4.2964583219        3.9257471509       -0.1880935351
 C         -4.0154180434        2.5710029493       -0.2238064684
 C         -2.7161640020        2.1341000556        0.0004769723
 N         -2.3850057970        0.7516656239       -0.0236339578
 C         -2.2312613647        0.0930900585       -1.2293626117
 C         -2.6817762566        0.6563148005       -2.4255821689
 C         -2.5693613237       -0.0402145815       -3.6108104747
 C         -2.0074384926       -1.3076157484       -3.6307243682
 C         -1.5222391715       -1.8574984487       -2.4587991769
 C         -1.6234691477       -1.1710556142       -1.2587930651
 C         -0.9539873123       -1.6689485039       -0.0094367100
 C         -0.6239118229       -3.1396396304       -0.0042236923
 C         -1.4868022317       -4.2111039032       -0.0189906608
 C         -0.9534871334       -5.4961244196       -0.0043411851
 C          0.4201414431       -5.6945871853        0.0259142856
 C          1.2977884658       -4.6249573803        0.0413214208
 C          0.7689396200       -3.3392771456        0.0256642022
 C          1.4227550533       -2.0614490966        0.0329106495
 N          2.6956798029       -1.7228749506        0.0502575707
 C          3.0679477548       -0.4426484370        0.0364176397
 C          4.3932036699       -0.0545651167        0.0464346455
 C          4.7781267880        1.2974970946        0.0189276882
 C          6.1306667329        1.6879629332        0.0238274214
 C          6.4804972634        3.0135306399       -0.0105116299
 C          5.4933214450        4.0037814747       -0.0502543383
 C          4.1657348091        3.6557247726       -0.0541975463
 C          3.7745850744        2.3065436344       -0.0199261688
 C          2.4184890827        1.9200373852       -0.0242582819
 C          2.0372638519        0.6010891725        0.0044476254
 N          0.7455763242        0.2163476506        0.0004385485
 C          0.4408959261       -1.0431174507        0.0097576403
 C         -1.6596187630       -1.1813889562        1.2231921923
 C         -1.6050918854       -1.8765002049        2.4213790513
 C         -2.1528296505       -1.3422037573        3.5728046488
 C         -2.7437368262       -0.0881881930        3.5342112508
 C         -2.8091243442        0.6164671251        2.3504793906
 C         -2.2754370111        0.0766051769        1.1776133616
 C         -1.7061475770        3.0480567786        0.2690330534
 C         -1.9958713196        4.4000412377        0.3053545804
 H         -3.5140073193        5.8948314627        0.1025832046
 H         -5.3060580624        4.2676413506       -0.3617434642
 H         -4.7958784240        1.8499958680       -0.4189879169
 H         -3.1150809701        1.6445073473       -2.4231921925
 H         -2.9236505611        0.4094541878       -4.5262794406
 H         -1.9262338604       -1.8535893954       -4.5577240546
 H         -1.0458652720       -2.8265332818       -2.4722176516
 H         -2.5560170848       -4.0571156528       -0.0423589157
 H         -1.6168087976       -6.3479633105       -0.0158691087
 H          0.8097427224       -6.7021311591        0.0380116706
 H          2.3660081450       -4.7723193171        0.0644537035
 H          5.1495406190       -0.8244164875        0.0721800150
 H          6.8911678572        0.9207525441        0.0540658034
 H          7.5222654225        3.3000191816       -0.0076419401
 H          5.7823301757        5.0444029163       -0.0785157379
 H          3.4001832613        4.4184258466       -0.0854615298
 H          1.6536925812        2.6821752993       -0.0586913129
 H         -1.1208154544       -2.8412099464        2.4495645701
 H         -2.1065195426       -1.8942227002        4.4986727275
 H         -3.1592251367        0.3423919195        4.4328927226
 H         -3.2764742403        1.5891791548        2.3258429644
 H         -0.7065058960        2.6799740788        0.4460114646
 H         -1.2117090702        5.1123375369        0.5129458472
  63
  -99.3021933564000       7.941737873716466E-002 !
 C         -3.1199417983        4.8437254224       -0.0850234432
 C         -1.8533374258        4.3481724062       -0.3489833029
 C         -1.6221785092        2.9853086671       -0.3156993113
 C         -2.6626783367        2.1155896668       -0.0158703939
 N         -2.3831737411        0.7226274523        0.0083414158
 C         -2.2668522706        0.0517158470       -1.1951402863
 C         -2.7955200733        0.5961883507       -2.3679209609
 C         -2.7226753219       -0.1034023777       -3.5542563201
 C         -2.1290188016       -1.3561205760       -3.5949372587
 C         -1.5885383259       -1.8961423571       -2.4426122640
 C         -1.6520801643       -1.2065773396       -1.2418464981
 C         -0.9580944736       -1.6957846769       -0.0034397791
 C         -0.6048018869       -3.1605962430       -0.0126891931
 C         -1.4512178450       -4.2452911491       -0.0200508664
 C         -0.8980476606       -5.5218650647       -0.0293207454
 C          0.4789124104       -5.6987414460       -0.0313813246
 C          1.3400109649       -4.6156457300       -0.0259021584
 C          0.7914239073       -3.3381575587       -0.0170500757
 C          1.4250967050       -2.0500340631       -0.0089819400
 N          2.6925926145       -1.6904305069       -0.0110162197
 C          3.0435379303       -0.4041085909        0.0048762838
 C          4.3622702358        0.0062840298       -0.0012420712
 C          4.7245660451        1.3647949042        0.0211320776
 C          6.0698851896        1.7792108308        0.0086440462
 C          6.3962123628        3.1110726195        0.0336314213
 C          5.3921598045        4.0842410077        0.0742752391
 C          4.0711013834        3.7127347816        0.0876100586
 C          3.7041077532        2.3566681166        0.0598627310
 C          2.3548904228        1.9473280464        0.0654217223
 C          1.9956494809        0.6224163509        0.0318302749
 N          0.7102631274        0.2165470953        0.0220089804
 C          0.4267892024       -1.0478859188        0.0039367835
 C         -1.6556435194       -1.2158131464        1.2377266638
 C         -1.5861731895       -1.9194735324        2.4299477615
 C         -2.0940290620       -1.3817049582        3.5978269250
 C         -2.6431300160       -0.1085897953        3.5831049058
 C         -2.7244881320        0.6046287900        2.4052529764
 C         -2.2560320234        0.0520981416        1.2111044036
 C         -3.9360942679        2.6086520092        0.2373813064
 C         -4.1585363308        3.9746793988        0.2048517438
 H         -3.2988506999        5.9081233505       -0.1082636977
 H         -1.0445594040        5.0253203945       -0.5793115287
 H         -0.6451511214        2.5721133510       -0.5178574170
 H         -3.2653471601        1.5676509335       -2.3401942536
 H         -3.1353018724        0.3294346673       -4.4531547124
 H         -2.0756082949       -1.9032223732       -4.5233481016
 H         -1.1024948410       -2.8599568898       -2.4724334323
 H         -2.5228830177       -4.1072705034       -0.0183895513
 H         -1.5481424591       -6.3838938761       -0.0341437602
 H          0.8842984784       -6.7001169353       -0.0379899724
 H          2.4106497036       -4.7470221327       -0.0281125639
 H          5.1314893366       -0.7508260841       -0.0230310118
 H          6.8440929194        1.0258799732       -0.0216739526
 H          7.4327222470        3.4158880059        0.0224259100
 H          5.6629094903        5.1299252511        0.0951443196
 H          3.2920633741        4.4616288330        0.1191260978
 H          1.5785780800        2.6975936837        0.1011211079
 H         -1.1172251218       -2.8921172071        2.4407471547
 H         -2.0389868478       -1.9410413254        4.5187940669
 H         -3.0114121977        0.3323196295        4.4972495915
 H         -3.1464723447        1.5974549598        2.4076293967
 H         -4.7438859000        1.9236196119        0.4504940073
 H         -5.1477174470        4.3600781013        0.4024995135
  63
  -99.3021173551000       7.328038956574506E-002 !
 C         -5.6387218425        3.8675533243       -0.0257045912
 C         -4.2956358956        4.1996667465        0.0396639854
 C         -3.3329892519        3.2052823645        0.0489195031
 C         -3.7208604504        1.8735433280       -0.0069128629
 N         -2.7327582524        0.8464697766       -0.0001511070
 C         -2.2907219708        0.3385403779       -1.2069121217
 C         -2.7979432039        0.8368471574       -2.4119483876
 C         -2.3792107637        0.3200836416       -3.6190192534
 C         -1.4477761023       -0.7067260450       -3.6561068396
 C         -0.9347360379       -1.1985745223       -2.4722230451
 C         -1.3427590763       -0.6906260833       -1.2461138790
 C         -0.7154687174       -1.2211089408        0.0124177821
 C         -0.6145393394       -2.7320877888        0.0060233817
 C         -1.6365105324       -3.6506383538       -0.0018950382
 C         -1.3128158270       -5.0039240414       -0.0145851886
 C          0.0125059021       -5.4165160762       -0.0194539138
 C          1.0490085330       -4.4998686654       -0.0104275711
 C          0.7293941660       -3.1466205648        0.0028481891
 C          1.5727653983       -1.9857696775        0.0114589426
 N          2.8826450395       -1.8512695136        0.0090447370
 C          3.4535108072       -0.6472979867        0.0105894302
 C          4.8225940185       -0.4703327338        0.0022995214
 C          5.4132345130        0.8059164181       -0.0007480310
 C          6.8100357579        0.9805330199       -0.0135000381
 C          7.3620721912        2.2359503824       -0.0195679928
 C          6.5411285947        3.3686159638       -0.0120058481
 C          5.1755404800        3.2318734886        0.0021661841
 C          4.5787589199        1.9595767968        0.0077515946
 C          3.1789275085        1.7892908520        0.0188475707
 C          2.5971730300        0.5455907958        0.0192333294
 N          1.2631784684        0.3661271525        0.0249895325
 C          0.7577135807       -0.8252498230        0.0202173769
 C         -1.3650615984       -0.6978029448        1.2618615959
 C         -0.9807919263       -1.2141163502        2.4921281145
 C         -1.5226064471       -0.7356984690        3.6687272274
 C         -2.4622502229        0.2831631573        3.6199688926
 C         -2.8571947575        0.8085661639        2.4086150627
 C         -2.3160055443        0.3282354336        1.2111044163
 C         -5.0673098034        1.5381335290       -0.0713760604
 C         -6.0234771933        2.5379331980       -0.0810783489
 H         -6.3870824698        4.6455592110       -0.0338454832
 H         -3.9958569706        5.2359042165        0.0827741937
 H         -2.2825006905        3.4495702296        0.0992449307
 H         -3.5205982574        1.6382619157       -2.3946230324
 H         -2.7813654073        0.7216816636       -4.5369788000
 H         -1.1198073678       -1.1136275366       -4.5998228637
 H         -0.2006669286       -1.9910179801       -2.4897379792
 H         -2.6679630305       -3.3291133702        0.0010794912
 H         -2.1023388251       -5.7402630434       -0.0214830020
 H          0.2382894403       -6.4728990042       -0.0308700163
 H          2.0807564879       -4.8148076133       -0.0145978894
 H          5.4503762144       -1.3486391033       -0.0042112669
 H          7.4419718678        0.1038551497       -0.0197621792
 H          8.4358548792        2.3564551714       -0.0312701281
 H          6.9887171773        4.3518328248       -0.0162199279
 H          4.5378457019        4.1044737552        0.0072061314
 H          2.5367836421        2.6574182818        0.0254885768
 H         -0.2436528629       -2.0035108465        2.5183573388
 H         -1.2130631667       -1.1489265214        4.6159755203
 H         -2.8905723584        0.6707124115        4.5321461204
 H         -3.5893156032        1.6010857422        2.3817572933
 H         -5.3537442543        0.4976411933       -0.1148089806
 H         -7.0702202260        2.2781085658       -0.1318826959
  63
  -99.3020347005000       6.714324788132026E-002 !
 C         -5.8184048806        3.7250714717       -0.0169801383
 C         -4.4928054819        4.1232707567       -0.0685154731
 C         -3.4820910557        3.1779125758       -0.0639481925
 C         -3.8038638022        1.8285448501       -0.0082724914
 N         -2.7676061337        0.8500931673       -0.0067242778
 C         -2.3104961975        0.3608465720       -1.2157652814
 C         -2.8413518024        0.8413368859       -2.4179365691
 C         -2.4051732574        0.3462183823       -3.6278834900
 C         -1.4338291718       -0.6427421239       -3.6707856036
 C         -0.9033126282       -1.1220332822       -2.4895296613
 C         -1.3282075692       -0.6352157890       -1.2605242576
 C         -0.6953626544       -1.1672277814       -0.0055008557
 C         -0.6188449098       -2.6804469291       -0.0063843173
 C         -1.6551010006       -3.5827880121       -0.0042782767
 C         -1.3527007370       -4.9410356265       -0.0032795756
 C         -0.0341543793       -5.3747386901       -0.0049591641
 C          1.0165862864       -4.4745184431       -0.0072134072
 C          0.7180144168       -3.1164603806       -0.0074917792
 C          1.5798525391       -1.9694778212       -0.0058342107
 N          2.8916963386       -1.8577362048       -0.0037584198
 C          3.4831070152       -0.6639097131        0.0027486592
 C          4.8550427777       -0.5110767953        0.0083926293
 C          5.4678897072        0.7545321936        0.0183091161
 C          6.8676224238        0.9042050506        0.0273208043
 C          7.4417861346        2.1495626244        0.0386859034
 C          6.6406963773        3.2964708362        0.0404980862
 C          5.2728925810        3.1839753725        0.0311873602
 C          4.6535578262        1.9224908556        0.0205658468
 C          3.2508045601        1.7767417543        0.0132724022
 C          2.6471383881        0.5434626090        0.0054725340
 N          1.3102746141        0.3867751331        0.0010525331
 C          0.7837545798       -0.7955799896       -0.0034394555
 C         -1.3320536838       -0.6374799308        1.2484636874
 C         -0.9101768484       -1.1258861202        2.4778391940
 C         -1.4409088338       -0.6453178427        3.6585542200
 C         -2.4061014693        0.3496459433        3.6148388433
 C         -2.8391206156        0.8465042786        2.4044228120
 C         -2.3128056121        0.3600565602        1.2026968969
 C         -5.1325229366        1.4271539691        0.0435969864
 C         -6.1371854900        2.3782722723        0.0395030483
 H         -6.6044437390        4.4649629985       -0.0207046738
 H         -4.2443533630        5.1729365411       -0.1124197399
 H         -2.4445933830        3.4740133052       -0.1043143679
 H         -3.5979273150        1.6107174925       -2.3958356969
 H         -2.8256436838        0.7343911061       -4.5433825070
 H         -1.0915991029       -1.0322492339       -4.6168000671
 H         -0.1433083184       -1.8894692653       -2.5110133656
 H         -2.6814195207       -3.2453125883       -0.0032213263
 H         -2.1536752514       -5.6648320513       -0.0001979601
 H          0.1750708906       -6.4346153467       -0.0048598288
 H          2.0433606756       -4.8053750089       -0.0076837324
 H          5.4672459366       -1.4003191322        0.0056929877
 H          7.4837027918        0.0162885996        0.0259193917
 H          8.5174521815        2.2510622695        0.0463999420
 H          7.1056403183        4.2715952803        0.0496254991
 H          4.6508588356        4.0678927566        0.0325690016
 H          2.6239637452        2.6559494111        0.0143972722
 H         -0.1520181666       -1.8952193341        2.5002304324
 H         -1.1013632722       -1.0364663677        4.6048229309
 H         -2.8238003984        0.7414921558        4.5300655055
 H         -3.5883031255        1.6230316640        2.3812736045
 H         -5.3677155407        0.3739312784        0.0869864329
 H         -7.1701658626        2.0669530382        0.0799914780
  63
  -99.3017341687000       4.885257867304769E-002 !
 C         -6.1774349610        3.3848951649        0.0001269533
 C         -4.9038370317        3.9226401024       -0.0859205073
 C         -3.7969692581        3.0921003230       -0.0900637450
 C         -3.9697805646        1.7168273527       -0.0088598910
 N         -2.8373521680        0.8516444481       -0.0122092522
 C         -2.3321918035        0.4146205428       -1.2223334918
 C         -2.8815560319        0.8743959962       -2.4242103631
 C         -2.3915257292        0.4363900555       -3.6355826711
 C         -1.3463341941       -0.4738733948       -3.6804684935
 C         -0.8018248095       -0.9373794336       -2.4992209800
 C         -1.2803575502       -0.5072855574       -1.2688846358
 C         -0.6520745589       -1.0470669263       -0.0146148336
 C         -0.6320400835       -2.5633707710       -0.0132525575
 C         -1.7016884050       -3.4256259690       -0.0161599969
 C         -1.4508025065       -4.7942180816       -0.0135140650
 C         -0.1493941546       -5.2768936086       -0.0076688024
 C          0.9344248987       -4.4169407194       -0.0050761432
 C          0.6873676783       -3.0485152402       -0.0080690862
 C          1.5913966638       -1.9343763369       -0.0064136462
 N          2.9064084712       -1.8709864312        0.0027676848
 C          3.5415601894       -0.7000000485        0.0087913192
 C          4.9179743141       -0.5973116018        0.0236369895
 C          5.5768081562        0.6450302654        0.0327781648
 C          6.9809582865        0.7436801881        0.0514728868
 C          7.6000075988        1.9674112416        0.0617690648
 C          6.8413617772        3.1428031682        0.0533311478
 C          5.4704075310        3.0801417685        0.0346575120
 C          4.8057231675        1.8419416822        0.0243757268
 C          3.3987173458        1.7475779687        0.0076686329
 C          2.7501380900        0.5373808703        0.0009435919
 N          1.4088836018        0.4297455333       -0.0108181765
 C          0.8381634360       -0.7318217678       -0.0130281263
 C         -1.2742843761       -0.5035315753        1.2413524569
 C         -0.7881504105       -0.9271073749        2.4709388376
 C         -1.3164842252       -0.4473943383        3.6529285963
 C         -2.3483706619        0.4778960679        3.6098019786
 C         -2.8468557369        0.9084980378        2.3992350810
 C         -2.3207152394        0.4243668313        1.1965622061
 C         -5.2460065651        1.1758630407        0.0769212431
 C         -6.3476012442        2.0128578080        0.0817161037
 H         -7.0386087075        4.0357311552        0.0037319303
 H         -4.7711697814        4.9922544956       -0.1483644718
 H         -2.7986783307        3.4982518277       -0.1560071419
 H         -3.6957748379        1.5824406851       -2.4006077333
 H         -2.8279012698        0.8077126369       -4.5506313181
 H         -0.9610907432       -0.8179360258       -4.6275293459
 H          0.0103079751       -1.6496629391       -2.5216421016
 H         -2.7146216994       -3.0496675402       -0.0203781411
 H         -2.2783977243       -5.4874562561       -0.0159911679
 H          0.0196388817       -6.3438608158       -0.0049271866
 H          1.9479171237       -4.7863829380       -0.0010595973
 H          5.4971136595       -1.5084042836        0.0297308833
 H          7.5644509504       -0.1659607242        0.0578648012
 H          8.6785413414        2.0297156923        0.0768351153
 H          7.3414838384        4.1003425276        0.0617950058
 H          4.8807485482        3.9859876151        0.0281817678
 H          2.8042745748        2.6490599661        0.0012071390
 H          0.0183377969       -1.6456726729        2.4924041066
 H         -0.9250646715       -0.7863265917        4.5992521402
 H         -2.7670079647        0.8674370075        4.5255314957
 H         -3.6479223000        1.6314145898        2.3765555467
 H         -5.3651186202        0.1043264750        0.1403655610
 H         -7.3398564079        1.5926319681        0.1485360416
  63
  -99.3015236417000       3.909632916301063E-002 !
 C         -6.3548762802        3.1837254535       -0.0063440267
 C         -5.1142199131        3.7988166130       -0.0426773069
 C         -3.9594989469        3.0361690599       -0.0434265432
 C         -4.0509857082        1.6509906314       -0.0083162301
 N         -2.8704706258        0.8526044722       -0.0086705057
 C         -2.3324411161        0.4530956521       -1.2176846888
 C         -2.8769041929        0.9169417429       -2.4200906129
 C         -2.3528400000        0.5176166037       -3.6306978006
 C         -1.2774874602       -0.3567649922       -3.6739214458
 C         -0.7371456056       -0.8235753442       -2.4920015555
 C         -1.2489321109       -0.4313182426       -1.2625318714
 C         -0.6300530070       -0.9802141248       -0.0070961557
 C         -0.6401779793       -2.4973431172       -0.0083683345
 C         -1.7265635545       -3.3383896465       -0.0138941671
 C         -1.5025692972       -4.7116541845       -0.0134191639
 C         -0.2108179019       -5.2197044142       -0.0070241739
 C          0.8895875597       -4.3811029827       -0.0015854912
 C          0.6692683440       -3.0081338081       -0.0025976387
 C          1.5950439973       -1.9120989495        0.0012284615
 N          2.9110524780       -1.8751737205        0.0077103510
 C          3.5697141599       -0.7173355850        0.0107398104
 C          4.9479121052       -0.6424149366        0.0187288704
 C          5.6317254139        0.5863563640        0.0220585857
 C          7.0376256934        0.6565404636        0.0311880321
 C          7.6813168814        1.8675215417        0.0344828666
 C          6.9464735470        3.0579190437        0.0285623326
 C          5.5744748971        3.0229981376        0.0195935217
 C          4.8848040548        1.7985207857        0.0163390924
 C          3.4760546301        1.7325155196        0.0079884082
 C          2.8029242667        0.5357491289        0.0055205834
 N          1.4598733386        0.4548505644       -0.0009814556
 C          0.8652594494       -0.6947973841       -0.0027503922
 C         -1.2527530041       -0.4339334781        1.2477565128
 C         -0.7442415582       -0.8274110911        2.4782254279
 C         -1.2847976575       -0.3581593761        3.6590685794
 C         -2.3551346169        0.5222295279        3.6138288840
 C         -2.8761011890        0.9225774279        2.4022477967
 C         -2.3342952464        0.4526588178        1.2009915405
 C         -5.2939115564        1.0327607890        0.0278835754
 C         -6.4439196518        1.8020575248        0.0291379163
 H         -7.2535539548        3.7818285665       -0.0055246296
 H         -5.0449151224        4.8758960111       -0.0697419358
 H         -2.9862759492        3.5030640314       -0.0718492404
 H         -3.7136212341        1.5983349458       -2.3972536653
 H         -2.7859150834        0.8915379580       -4.5462676574
 H         -0.8660587213       -0.6712709558       -4.6202469030
 H          0.0976976857       -1.5091695099       -2.5136435825
 H         -2.7319960163       -2.9427973169       -0.0188645269
 H         -2.3435968513       -5.3886105543       -0.0175288616
 H         -0.0626599888       -6.2897780393       -0.0067497353
 H          1.8957219430       -4.7702259790        0.0029612228
 H          5.5084517241       -1.5651046827        0.0228407045
 H          7.6025910708       -0.2647535297        0.0359040051
 H          8.7609983559        1.9079928587        0.0418397328
 H          7.4658612054        4.0052027131        0.0312498647
 H          5.0033143596        3.9406149073        0.0149521506
 H          2.8999382965        2.6457757986        0.0039980713
 H          0.0884966518       -1.5154865939        2.5016504953
 H         -0.8760804883       -0.6739334709        4.6061619054
 H         -2.7862726477        0.9004723255        4.5285502419
 H         -3.7074067952        1.6105448171        2.3774754794
 H         -5.3497837725       -0.0454275873        0.0557040894
 H         -7.4102793847        1.3215062671        0.0577415921
