72
 energy: -114.883257280003 gnorm: 0.000149595475 xtb: 6.7.1 (edcfbbe)
N           -0.00174866176456       -0.89296235671597       -0.94740653019727
C           -0.00029226956669        0.24657090566145       -0.70902641865688
C            0.00130152350776        1.59083342298072       -0.41058669132730
C           -1.23521243745477        2.33267817498249       -0.35316288918462
C           -2.51853394553130        1.67043091752750       -0.22885404730331
C           -3.65606616505851        2.15985205941669       -0.89051924629877
C           -4.86606547454642        1.51432403995907       -0.79508521026713
C           -4.98732444180448        0.35274742683255       -0.02609363500322
N           -6.20921043575704       -0.31753329503233        0.05864917359641
C           -7.43300436816408        0.26277840900207        0.32766370848235
C           -7.73764444684433        1.58418577173922        0.62932440647022
C           -9.05836264173262        1.89750819936825        0.89499210497382
C          -10.05405870588323        0.92404040629692        0.87357309185579
C           -9.75210465690370       -0.39961897898034        0.60217860900638
C           -8.43481565780191       -0.73723161087087        0.33259688803720
C           -7.76969507502193       -1.98158655472382        0.04507595550888
C           -8.21128952408785       -3.28779457772550       -0.09931555957362
C           -7.28472244218611       -4.26909288411111       -0.40779459981248
C           -5.94024050583628       -3.95503520565265       -0.59046996042020
C           -5.47662810686396       -2.65912094815916       -0.45294123463180
C           -6.39677109388433       -1.67553617261137       -0.11239233264803
C           -3.86757922946818       -0.13278538619016        0.65590437353005
C           -2.66069497617436        0.51770629293319        0.55868681424571
C           -1.14683616691723        3.70983337394406       -0.39117155969258
N            0.00420555410498        4.37467496748770       -0.40352917920941
C            1.15385753472706        3.70747555771776       -0.39156361536508
C            1.23946363421922        2.33012083852084       -0.35353116636379
C            2.52131074027321        1.66510306555260       -0.22940058993906
C            2.66064737913825        0.51143040065333        0.55730883446363
C            3.86583597127758       -0.14226808893835        0.65389442519759
C            4.98677062391819        0.34096640326007       -0.02778597410868
N            6.20695219391618       -0.33248619275522        0.05626596442507
C            6.39122334756124       -1.69074607981880       -0.11629975329341
C            5.46869923741384       -2.67167382401883       -0.45805391410529
C            5.92921575437372       -3.96848671296869       -0.59748462706138
C            7.27295938297060       -4.28597950524554       -0.41536380309846
C            8.20186814931836       -3.30733909964416       -0.10543986855005
C            7.76341671244746       -2.00029446695193        0.04084063012616
C            8.43152894872680       -0.75785697346869        0.32986010210505
C            9.74957019788723       -0.42363934807524        0.59997583995676
C           10.05462590702727        0.89903290744847        0.87278372202520
C            9.06126182023266        1.87486073568811        0.89507684773443
C            7.73983671795696        1.56492926873471        0.62899746232110
C            7.43210244908668        0.24454831475390        0.32595934256307
C            4.86846622499276        1.50360621198682       -0.79567365032837
C            3.66013114889790        2.15231193925010       -0.89054918213519
H           -3.56725525870500        3.03388502571292       -1.51817419217127
H           -5.71988079904089        1.87712295289814       -1.34762423900658
H           -6.96938760741488        2.34068827282634        0.67062530075467
H           -9.32118134987837        2.91836997899068        1.12903589155071
H          -11.07453924490468        1.20733930261392        1.08395326568176
H          -10.52280546583321       -1.15510857216735        0.60559298866958
H           -9.25583182539609       -3.53083132408878        0.02154108096993
H           -7.60768262246181       -5.29320395662452       -0.52068569493001
H           -5.24367805386735       -4.73813726612504       -0.85024713611403
H           -4.43650614161453       -2.42254421864084       -0.61762544371859
H           -3.96263374559846       -1.00621133383035        1.28338180509572
H           -1.81064358480697        0.14338800173570        1.10909713360566
H           -2.03422486631021        4.32536129169891       -0.33767475251345
H            2.04249707478703        4.32118796711859       -0.33828128439107
H            1.80969191911334        0.13887978308375        1.10750910523235
H            3.95868145479265       -1.01647915765206        1.28061407960311
H            4.42911848501533       -2.43236328627028       -0.62224094723948
H            5.23076856858289       -4.74956559031860       -0.85830997050164
H            7.59352189374336       -5.31066906618758       -0.52985580552569
H            9.24583171296177       -3.55307640793844        0.01496657399457
H           10.51848742635019       -1.18093750298248        0.60283714680867
H           11.07573688215381        1.17966741507379        1.08364668202945
H            9.32649039288489        2.89487444088133        1.13010595110184
H            6.97333719559391        2.32317885331103        0.67095955532032
H            5.72320891149424        1.86468883489507       -1.34790194917896
H            3.57360965417725        3.02714783188211       -1.51740783209459
