  72
       -114.83230002
 N         -0.0249113127       -0.9280029367       -0.9034047847
 C         -0.0157600703        0.2170847018       -0.7048530409
 C         -0.0064955264        1.5697763313       -0.4359624781
 C         -1.2402640275        2.3164866949       -0.3884071970
 C         -2.5238057957        1.6665744665       -0.2324875523
 C         -3.6710125035        2.1570042599       -0.8770783962
 C         -4.8801673079        1.5151623083       -0.7592071270
 C         -4.9919531089        0.3573943364        0.0169808167
 N         -6.2096066596       -0.3165346314        0.1148944447
 C         -7.4383593737        0.2578529645        0.3699607628
 C         -7.7559895917        1.5800875164        0.6520515673
 C         -9.0811173454        1.8869520977        0.9002942498
 C        -10.0696984839        0.9063862693        0.8818626771
 C         -9.7553258199       -0.4176706118        0.6326476068
 C         -8.4330336125       -0.7490651138        0.3804179054
 C         -7.7579675427       -1.9912214011        0.1132444967
 C         -8.1901123963       -3.3018926965       -0.0201960510
 C         -7.2563145881       -4.2789960796       -0.3152766157
 C         -5.9134968336       -3.9571238502       -0.4959151156
 C         -5.4592173093       -2.6575269404       -0.3689112850
 C         -6.3871048293       -1.6774418855       -0.0416918178
 C         -3.8635909878       -0.1251098608        0.6867693746
 C         -2.6569609181        0.5200250728        0.5662764263
 C         -1.1466519544        3.6927907719       -0.4659203815
 N          0.0071153046        4.3452163837       -0.5007437042
 C          1.1546608422        3.6805953496       -0.4833934082
 C          1.2348955211        2.3034049761       -0.4068208781
 C          2.5150897333        1.6424917940       -0.2662457147
 C          2.6493228056        0.4975069679        0.5343222937
 C          3.8563064030       -0.1473719932        0.6547459178
 C          4.9834695528        0.3341676960       -0.0174032410
 N          6.2073329901       -0.3264187919        0.0955881305
 C          6.4047872741       -1.6865129684       -0.0413496495
 C          5.4942246960       -2.6835634270       -0.3657918280
 C          5.9680200122       -3.9782043346       -0.4715709970
 C          7.3130192694       -4.2792063607       -0.2722175599
 C          8.2297790044       -3.2856368336        0.0213084697
 C          7.7779929340       -1.9795968637        0.1333207688
 C          8.4330254431       -0.7253328141        0.3934965763
 C          9.7473107203       -0.3727932291        0.6587820088
 C         10.0404302267        0.9582326825        0.8957444882
 C          9.0385717676        1.9253674682        0.8892365515
 C          7.7210979135        1.5973600334        0.6282354564
 C          7.4252131909        0.2676388083        0.3583417650
 C          4.8678714983        1.4835990617       -0.8050707447
 C          3.6584656054        2.1249871964       -0.9230394527
 H         -3.5912258523        3.0263532612       -1.5120951052
 H         -5.7419024482        1.8749617312       -1.3014331282
 H         -6.9936346283        2.3430153945        0.6918848736
 H         -9.3535422309        2.9087253980        1.1179592344
 H        -11.0939007180        1.1856086457        1.0775039221
 H        -10.5192256468       -1.1800429255        0.6391394313
 H         -9.2339220883       -3.5494731232        0.0982890445
 H         -7.5714412722       -5.3061322566       -0.4197493187
 H         -5.2107751534       -4.7375001586       -0.7459670246
 H         -4.4210192388       -2.4146585393       -0.5340867144
 H         -3.9536769787       -0.9934423795        1.3215127878
 H         -1.7994838402        0.1461161269        1.1025377676
 H         -2.0302968075        4.3131981755       -0.4191520512
 H          2.0453097729        4.2917100808       -0.4507424075
 H          1.7931800908        0.1264474000        1.0746374217
 H          3.9479818685       -1.0131182238        1.2927781989
 H          4.4545006506       -2.4574236685       -0.5447560242
 H          5.2790855799       -4.7714473790       -0.7195701118
 H          7.6435951846       -5.3030312498       -0.3603119108
 H          9.2754066136       -3.5170998183        0.1554401042
 H         10.5213964061       -1.1244352735        0.6840346435
 H         11.0580507259        1.2539665672        1.1011335843
 H          9.2941808851        2.9532984808        1.0978562902
 H          6.9479889338        2.3501237324        0.6489890880
 H          5.7277538758        1.8389008703       -1.3531920484
 H          3.5762646587        2.9894763564       -1.5643515535
