77
 energy: -126.208376796567 gnorm: 0.000042080209 xtb: 6.7.1 (edcfbbe)
N           -6.67758803680904        4.72682323309869        1.75168621602663
C           -5.64008403124663        4.35357107596703        1.43483833083350
C           -4.36283434822582        3.89758062531674        1.04689930289688
C           -3.66109575517657        4.55205246155577        0.03156919571082
C           -2.41605016803335        4.10512807762826       -0.34855403258262
C           -1.83655922336910        2.99663131222252        0.27782219188845
N           -0.58007945206350        2.54701792634118       -0.10870713347719
C            0.38729287292664        3.45590120266635       -0.57756648465662
C            1.17115559752206        3.13156763943988       -1.68206639420813
C            2.14091088113459        4.00932644847324       -2.12639129423790
C            2.33027841250705        5.22304851972009       -1.48651316342277
C            1.54325982303042        5.55447018966392       -0.39580284207964
C            0.57946284735705        4.67692149707173        0.06354321030584
C           -0.24881942902334        1.19062088341378       -0.04663101070073
C            1.03996463863565        0.80581381569398        0.31689875579912
C            1.38646818220422       -0.53808604157709        0.34981375163895
N            2.69635894413294       -0.91073959277590        0.71492062759993
C            3.78619177778680       -0.50182834269736       -0.05726731754390
C            3.62990073164037        0.17164671697561       -1.26147505299079
C            4.73204604010907        0.56307773456733       -2.00612945022123
C            6.00762061854887        0.27562397037832       -1.56619592163406
C            6.18029015688654       -0.42590242147205       -0.38177836428797
C            5.08449907087499       -0.81862978095134        0.36361781749787
O            5.33270671949317       -1.53430556748439        1.50780246002807
C            4.25123205700919       -1.92971129588395        2.25588607026101
C            4.51661560934047       -2.63731773059866        3.41320207400475
C            3.47906283292685       -3.04634917225864        4.23813703075728
C            2.17905834391025       -2.72792044050624        3.90348510164371
C            1.90739605290820       -2.01944003107737        2.74256388789851
C            2.93238370502547       -1.62676326678221        1.89196090578285
C            0.44454317200855       -1.51335466454554        0.04092198648020
C           -0.84472282593102       -1.13068389193523       -0.31024599915041
N           -1.81015238040084       -2.10722448539913       -0.63371626090967
C           -1.68347662912824       -2.88351714073551       -1.78846631653585
C           -0.58568898131959       -2.78701840294156       -2.63304591688504
C           -0.49454014021485       -3.57341121001353       -3.77193659991152
C           -1.50191429553491       -4.46114170977358       -4.08878684762811
C           -2.61692836379513       -4.55139241710411       -3.26820738766936
C           -2.71392692615373       -3.76861575032470       -2.13323956846634
O           -3.86096026376272       -3.89283994686256       -1.38843471156846
C           -3.96885346341325       -3.12384762134281       -0.25683148756653
C           -5.11953567031362       -3.26621307569972        0.49558554173925
C           -5.28470978370709       -2.54219905104648        1.66765393633138
C           -4.28255185621148       -1.69354700239745        2.09073056472536
C           -3.12656750630406       -1.54774127389601        1.33899515262037
C           -2.96179516981536       -2.23700378024946        0.14508882551928
C           -1.18905485663309        0.21328345245328       -0.36488738698074
C           -2.53980613427728        2.35406898447615        1.30227659821934
C           -3.78820579932941        2.79273971963713        1.67944356244025
H           -4.10631263508712        5.40438964214993       -0.45983073185708
H           -1.88180826617516        4.60571486396961       -1.14214464542036
H            1.00853301347195        2.19270388976786       -2.19072217562160
H            2.74561590747342        3.74757194180006       -2.98146324572773
H            3.08661319521131        5.90827119547410       -1.83699920132599
H            1.68661636587742        6.49850928172205        0.10817761600976
H           -0.02601584634929        4.92909562374603        0.92189313087567
H            1.77462830591588        1.55354173827520        0.57490846250426
H            2.63783006211517        0.38700316938289       -1.62449225375028
H            4.58008985416842        1.09007888828850       -2.93546946096146
H            6.86919943103798        0.58049518090660       -2.13873994188151
H            7.16265091488170       -0.68334584207011       -0.01954746914997
H            5.54502979055897       -2.85360411361206        3.65429988886819
H            3.69592071897981       -3.60018029829582        5.13770839966378
H            1.36166976375670       -3.02425933346824        4.54266059210609
H            0.88716282741680       -1.76515232690148        2.50182561128785
H            0.71178146839644       -2.55824716373979        0.07280223482298
H            0.20305180107960       -2.08734235680174       -2.40481860959025
H            0.37227538310989       -3.48032130787152       -4.40796740796992
H           -1.43490048903454       -5.07730337846768       -4.97133179343912
H           -3.42974758340257       -5.22204172510154       -3.49642153898374
H           -5.87525971865118       -3.95240368729926        0.14849498913975
H           -6.18841589557558       -2.65629307791296        2.24485251588670
H           -4.38725654309855       -1.14093470273653        3.01179672694233
H           -2.33881404108479       -0.89883799164753        1.68812554712438
H           -2.18791091719330        0.49569346655647       -0.66177729142777
H           -2.08995232699977        1.51480305364446        1.80996991691919
H           -4.32447113850356        2.29222699180847        2.47174498159253
