77
 energy: -126.117689326874 gnorm: 0.000062223997 xtb: 6.7.1 (edcfbbe)
N           -7.42169684407941        3.27350571719962        1.44292505242334
C           -6.31252768234422        3.14736688769584        1.16037613225022
C           -4.96129001308249        2.99270300752271        0.81832485625547
C           -4.41676594860833        3.69503616237905       -0.26952792629513
C           -3.09487852722823        3.53718996791414       -0.60532638849720
C           -2.27080363569727        2.67953801136185        0.13483366951298
N           -0.92579116556584        2.50746212833511       -0.21722545534857
C           -0.17406353305241        3.61443698521707       -0.64098819307650
C            0.75371706906428        3.48620781393155       -1.67309673808117
C            1.49625175619283        4.57722789568537       -2.08047156541616
C            1.31493598086688        5.81129327341932       -1.47801598000102
C            0.38386337278543        5.94658304037743       -0.46119977592564
C           -0.35421567693067        4.85783227199757       -0.03859136697194
C           -0.34552048235631        1.25254424956673       -0.14497608476674
C            1.00723444488221        1.10587210726633        0.19760301175040
C            1.57130051548539       -0.15132622517709        0.26969302340070
N            2.94751704937655       -0.27808271804894        0.59722423040041
C            3.89920553358482        0.11688366907403       -0.31114890158572
C            3.58704738043163        0.58499113184479       -1.59316379787102
C            4.57410916414300        0.98567456382539       -2.45626665223381
C            5.93354887365722        0.92724964255311       -2.06925081362910
C            6.27349290226702        0.44346322022414       -0.82869002047423
C            5.28777237832811        0.02517197340552        0.06073611955591
O            5.66518994860048       -0.47141253061370        1.25851193268572
C            4.71880008450068       -0.88204781422911        2.12970399912539
C            5.12383719271361       -1.39324405898675        3.36014721005319
C            4.19334715226195       -1.79480621996819        4.28792470458959
C            2.81375022256888       -1.67336545951460        4.00333600186605
C            2.39237092896597       -1.17225569809553        2.79766914516613
C            3.31591563782015       -0.78220030305305        1.82101370037305
C            0.82142699109234       -1.30092152451460        0.02910202048716
C           -0.52516030588430       -1.15359403720342       -0.31104554337161
N           -1.30399885770651       -2.30500569770659       -0.57360448763783
C           -1.04394932707407       -3.09311365922944       -1.69126852467094
C           -0.03423776877619       -2.78742601538395       -2.59697064883374
C            0.19839867367951       -3.59674657847466       -3.69707591157654
C           -0.57823783370916       -4.71812501925784       -3.91689737870318
C           -1.60553116278997       -5.02371471258266       -3.03759319577874
C           -1.84374456918597       -4.21961941284125       -1.93741601260836
O           -2.89024622718567       -4.56706445618536       -1.12482355585419
C           -3.14105975713829       -3.77369965618365       -0.03576880248633
C           -4.20184104067296       -4.13212967394930        0.77658791075270
C           -4.49677393911037       -3.38874753890077        1.90876022274008
C           -3.71408505125940       -2.29681979184013        2.23238597821792
C           -2.65122284017965       -1.93304718397219        1.42268798885396
C           -2.35980566439846       -2.64879842659991        0.26736350315394
C           -1.09975437872083        0.09862087530604       -0.40472826939982
C           -2.81154862107490        1.99031200259522        1.22860498813928
C           -4.13393175302015        2.13803836796606        1.56459576603687
H           -5.05121667631413        4.35398110203363       -0.84372429371933
H           -2.67953992534150        4.07168222537135       -1.44728957998332
H            0.88139237551322        2.52978751902694       -2.15838837145642
H            2.21401693756199        4.46400751521002       -2.87933511003791
H            1.89354704707844        6.66305073509434       -1.80117525952767
H            0.23630949259118        6.90540027698379        0.01305994791363
H           -1.07356411427895        4.96141077085085        0.76032696265806
H            1.60905245190476        1.97732965268994        0.40540241708929
H            2.55232394984112        0.62282163269768       -1.89647450162721
H            4.31678294136530        1.34442236980916       -3.43977847359483
H            6.69885987223551        1.25260784931179       -2.75439676548009
H            7.30289318633104        0.37075224259911       -0.51462206186151
H            6.18226447609763       -1.45893833361798        3.55746102741169
H            4.50997743168808       -2.19294175326913        5.23784084290030
H            2.08988763534929       -1.97369793184963        4.74348681752722
H            1.33804266910481       -1.07389155177233        2.59006457453585
H            1.27087002209408       -2.27829468478972        0.09751050454698
H            0.56997915977181       -1.90770859081566       -2.44177931919379
H            0.99122405782440       -3.33984651790717       -4.38238945574333
H           -0.39803907013063       -5.35148816146408       -4.77080474709295
H           -2.23986367967601       -5.88205293537698       -3.18973228351192
H           -4.78282465318691       -4.99889003629135        0.50550681218047
H           -5.32880256841942       -3.67141992304362        2.53352452340742
H           -3.92388746269249       -1.72021334478553        3.11973281916887
H           -2.03753373840831       -1.08789755954221        1.68915112919188
H           -2.13770344362166        0.19017286976859       -0.68647587445140
H           -2.17066518972548        1.35081272278217        1.81798734064019
H           -4.54609492655209        1.60807594401048        2.41060165544520
