77
 energy: -126.208386863348 gnorm: 0.000050520996 xtb: 6.7.1 (edcfbbe)
N           -7.30710821992530        3.55510982909296        1.72316593691157
C           -6.22630358461886        3.36862309422532        1.38665998435843
C           -4.89635070695934        3.14283068025241        0.97445312175615
C           -4.35744160648118        3.86906562992773       -0.09037954308241
C           -3.06075764353519        3.64633104275084       -0.49446063443946
C           -2.26617126814137        2.69660794647786        0.15651227143468
N           -0.95848132751122        2.47202662673430       -0.25412676956409
C           -0.19400994487275        3.51907609307834       -0.80256742793996
C            0.60041559944359        3.28855880358041       -1.92296429604075
C            1.37387632799115        4.30650882277827       -2.44629473850978
C            1.35376018782253        5.56574834885813       -1.86986758712202
C            0.55444113217302        5.80187730819155       -0.76340441046024
C           -0.21304136874860        4.78615482262527       -0.22556921664976
C           -0.37446046186134        1.20644965703744       -0.14460700962176
C            0.97081624205876        1.09080090742578        0.19857740805421
C            1.56932626891827       -0.15984651960222        0.27439494409057
N            2.93198577968108       -0.26212583189088        0.61878794425674
C            3.91082088415553        0.32980390402976       -0.18400105647667
C            3.60834600537995        0.94519598435416       -1.39155862925167
C            4.60283727560665        1.52531003303435       -2.16409250440146
C            5.91822555670488        1.48743316420710       -1.74989428666704
C            6.24228387517353        0.84516724897891       -0.56378949306024
C            5.25412569533619        0.26471939384592        0.20918329953401
O            5.65619691351637       -0.37971089485940        1.35177385691415
C            4.68376686614012       -0.95905948632708        2.12868261201998
C            5.10263712720357       -1.59361140028470        3.28311283666446
C            4.17824315858463       -2.17522126633757        4.13817384316050
C            2.83388860089464       -2.09973449597833        3.83737954459747
C            2.40892073406213       -1.46597931972612        2.67934088449467
C            3.32347298298832       -0.90656699407427        1.79648151606166
C            0.82418427877218       -1.30868787941434        0.03017384347227
C           -0.52204179165465       -1.19476973096020       -0.29610929731520
N           -1.29049011060760       -2.35080356634421       -0.54669874473088
C           -1.03380651585912       -3.15520646680413       -1.65987386522108
C            0.00883038080074       -2.89741060635054       -2.53983236704157
C            0.23317984833929       -3.71812351236559       -3.63522364387792
C           -0.58541152045485       -4.80280425819718       -3.87322115564537
C           -1.64730524983612       -5.05860259625929       -3.01787161466636
C           -1.87684271604847       -4.24264873579965       -1.92616695899681
O           -2.96543486196048       -4.54207319120991       -1.14449620100350
C           -3.19955264557234       -3.74592127288464       -0.05147177093290
C           -4.28515485463361       -4.06682589684409        0.74163454387431
C           -4.56593113218529       -3.32424801066556        1.87954784217568
C           -3.74052925697068       -2.27526015633061        2.22857510009812
C           -2.65033208471653       -1.95010352148799        1.43587505968275
C           -2.37781380665752       -2.65904569376669        0.27361554990763
C           -1.11797351700345        0.05556771516582       -0.39503629422239
C           -2.80848237591593        1.98249313993463        1.23029622571776
C           -4.10697954275419        2.19637577354241        1.63182960787058
H           -4.96828564529971        4.59882426919767       -0.60078196437458
H           -2.65175807451544        4.20045134086677       -1.32599628486736
H            0.59875216592276        2.31079720581652       -2.38211312306409
H            1.98806386917002        4.11763068565909       -3.31374926380108
H            1.95672451009033        6.36010573062887       -2.28200242446437
H            0.53499236843766        6.78106269273907       -0.30889133477801
H           -0.82730316578735        4.96600066498193        0.64465950537088
H            1.55222775758750        1.97597923682875        0.40789570719515
H            2.58713096650987        0.96693145863463       -1.73602079986170
H            4.33621414052452        2.00224214332993       -3.09461107988491
H            6.69593808812317        1.94078616838106       -2.34376674597493
H            7.26246622034286        0.77900965801892       -0.22118940264440
H            6.15903636939618       -1.61640481899080        3.49767334394703
H            4.51480923140315       -2.67133452531946        5.03458603918685
H            2.10002823611883       -2.53062578405097        4.50089699167417
H            1.35341227471196       -1.40201812478948        2.46681495956984
H            1.28679087998653       -2.28140572863892        0.09427758411955
H            0.64827522042021       -2.04455349366606       -2.37407723748779
H            1.05387368868217       -3.49625006149000       -4.29991262045356
H           -0.41348169594597       -5.44640889402796       -4.72130157570008
H           -2.31675237975494       -5.88707407293892       -3.18521180785011
H           -4.89845411767776       -4.90527699355764        0.45299289494901
H           -5.41860577253100       -3.57892431735353        2.48859699955525
H           -3.93289802246801       -1.70294625682095        3.12307900831609
H           -1.99791334642629       -1.14248843955459        1.72821867475363
H           -2.15855716802206        0.12995666230362       -0.67289336641699
H           -2.19487592652370        1.26751144140379        1.75638533954178
H           -4.51820223661885        1.64195047965742        2.46210202127916
