  77
       -126.20836864
 N         -7.3147721196        3.5335652095        1.6988596991
 C         -6.2313779113        3.3529436596        1.3674521366
 C         -4.8984523098        3.1332420599        0.9615831839
 C         -4.3557958630        3.8659791058       -0.0968369421
 C         -3.0569689035        3.6473909184       -0.4963756035
 C         -2.2639378160        2.6951933678        0.1528224579
 N         -0.9553619214        2.4717841372       -0.2551658746
 C         -0.1899591490        3.5186219462       -0.8029416520
 C          0.6011859583        3.2886659828       -1.9257532156
 C          1.3763201227        4.3057453437       -2.4482835977
 C          1.3611978965        5.5634802632       -1.8683559736
 C          0.5650492269        5.7990554346       -0.7594722310
 C         -0.2043330791        4.7842031044       -0.2226372256
 C         -0.3717870777        1.2057242923       -0.1487785370
 C          0.9731924475        1.0891696016        0.1951699584
 C          1.5719055129       -0.1615851762        0.2678262908
 N          2.9338421066       -0.2649681906        0.6144929596
 C          3.9142488315        0.3348440176       -0.1806179548
 C          3.6147898378        0.9586163030       -1.3846356083
 C          4.6108669159        1.5460034162       -2.1495885162
 C          5.9249957560        1.5071436083       -1.7314467190
 C          6.2461528455        0.8568451060       -0.5489693201
 C          5.2563739232        0.2692461812        0.2165162184
 O          5.6559025702       -0.3826344412        1.3557530536
 C          4.6813865822       -0.9636250388        2.1287133758
 C          5.0970887388       -1.5997009790        3.2834731877
 C          4.1704934604       -2.1835439313        4.1345872924
 C          2.8270524765       -2.1086375839        3.8295905400
 C          2.4052884709       -1.4731332890        2.6713678458
 C          3.3221305091       -0.9114011636        1.7923225535
 C          0.8268684939       -1.3099563409        0.0205233557
 C         -0.5196167090       -1.1951824004       -0.3040115501
 N         -1.2908930742       -2.3504441227       -0.5501614654
 C         -1.0438918932       -3.1554011675       -1.6648529271
 C         -0.0081742270       -2.8983482789       -2.5530941094
 C          0.2065674327       -3.7194040732       -3.6501869405
 C         -0.6148702831       -4.8035214628       -3.8812609822
 C         -1.6697499692       -5.0587490926       -3.0170775497
 C         -1.8897046988       -4.2425333956       -1.9236653063
 O         -2.9715682430       -4.5412856978       -1.1325225089
 C         -3.1966124814       -3.7439371815       -0.0384734212
 C         -4.2764103160       -4.0629231390        0.7632508077
 C         -4.5480927797       -3.3185440841        1.9022727943
 C         -3.7192369372       -2.2698497922        2.2437576970
 C         -2.6348372268       -1.9466955275        1.4424917078
 C         -2.3717508556       -2.6572206711        0.2790501565
 C         -1.1152538900        0.0553879596       -0.4015433747
 C         -2.8093367383        1.9762223528        1.2218799145
 C         -4.1099928781        2.1857332164        1.6186038765
 H         -4.9655207109        4.5974798186       -0.6061578062
 H         -2.6453897087        4.2062228162       -1.3234385329
 H          0.5955834276        2.3120183359       -2.3872633906
 H          1.9877613516        4.1174576320       -3.3178203152
 H          1.9655956159        6.3571378913       -2.2797236025
 H          0.5495557051        6.7771275805       -0.3023976809
 H         -0.8165746013        4.9635068777        0.6491358547
 H          1.5540410196        1.9738434670        0.4081600695
 H          2.5947710494        0.9812864392       -1.7324538514
 H          4.3464557136        2.0294967608       -3.0773144276
 H          6.7039080797        1.9661261695       -2.3194082688
 H          7.2652598552        0.7898430807       -0.2034146126
 H          6.1528042641       -1.6217822391        3.5014200999
 H          4.5045718889       -2.6807437910        5.0313199145
 H          2.0914050401       -2.5413776250        4.4899096144
 H          1.3503889211       -1.4098284539        2.4557227154
 H          1.2893717773       -2.2828533602        0.0824769258
 H          0.6329865798       -2.0457946647       -2.3922303321
 H          1.0216760535       -3.4981103323       -4.3219439793
 H         -0.4505320586       -5.4472727201       -4.7307187367
 H         -2.3408771925       -5.8869795312       -3.1786734776
 H         -4.8923937540       -4.9014035481        0.4805554126
 H         -5.3964463358       -3.5715777680        2.5179464341
 H         -3.9044642099       -1.6959478331        3.1387042162
 H         -1.9795963157       -1.1393099767        1.7289038606
 H         -2.1559851478        0.1300733404       -0.6787199707
 H         -2.1967635799        1.2600617909        1.7476072025
 H         -4.5237483130        1.6267408032        2.4445108500
