  89
       -135.04943707
 C          4.4103443710        4.1613048475        2.3474386543
 C          3.3328005995        3.3856442937        1.5901888757
 C          2.0893956905        3.2926386132        2.4981002769
 C          2.9399699499        4.0646322710        0.2897966510
 C          3.2806648356        5.3629530038       -0.0542859878
 C          2.8781034877        5.9071084866       -1.2628893249
 C          2.1503378346        5.1475585963       -2.1611752545
 C          1.8126637875        3.8451447494       -1.8437259659
 C          2.1808684825        3.3145306374       -0.6140683269
 N          1.8929728604        1.9749860928       -0.2865071099
 C          0.6073232653        1.4785076719       -0.1900544005
 C         -0.5010314889        2.2283236341       -0.6048725909
 C         -1.7737556072        1.7162381761       -0.5063676623
 C         -2.0075348439        0.4399921637        0.0076213469
 C         -3.3735427043       -0.0738819216        0.0728498133
 C         -3.6649158257       -1.4360581091        0.1830565673
 C         -5.0068492227       -1.8015620676        0.2408855898
 C         -5.4429844956       -3.1992931650        0.3663279306
 C         -4.6671428703       -4.2568608856       -0.1014923061
 C         -5.1084248246       -5.5597936698        0.0376300929
 C         -6.3243726841       -5.8241947221        0.6457552764
 C         -7.1062663425       -4.7770867072        1.1063346786
 C         -6.6714669369       -3.4738269585        0.9642843025
 N         -5.9697598679       -0.8820689650        0.2042957040
 C         -5.6071402751        0.3899529801        0.0835519947
 C         -6.6769612802        1.3927101470        0.0328017985
 C         -8.0105209804        0.9936761031       -0.0228996238
 C         -9.0165920444        1.9394358983       -0.0672462477
 C         -8.7035972722        3.2895974884       -0.0566430237
 C         -7.3785547639        3.6924528139       -0.0018201534
 C         -6.3683538636        2.7510612513        0.0428517099
 N         -4.3559437015        0.8251591057        0.0099701620
 C         -0.9102471087       -0.2828013917        0.4745798506
 C          0.3650301893        0.2267081097        0.3915075956
 C          3.0033550116        1.3097968844        0.2674792321
 C          3.7801098497        1.9827990411        1.2107837105
 C          4.9050123729        1.3588899389        1.7459774791
 C          5.2777006641        0.0796382863        1.3813172948
 C          4.5183669849       -0.5753967318        0.4243033617
 C          3.3983909256        0.0450132277       -0.1736442957
 C          2.9301450513       -0.8547269055       -1.1934272023
 C          1.9090108579       -0.8029029616       -2.1356834626
 C          1.7287921761       -1.8809569380       -2.9788342502
 C          2.5400630144       -3.0094360995       -2.8895891368
 C          3.5733394179       -3.0784510362       -1.9756685969
 C          3.7784127933       -1.9863212910       -1.1448119156
 N          4.7271173866       -1.8063531288       -0.1601645245
 C          5.7415788286       -2.7109589354        0.1834542670
 C          5.9302916516       -3.0737367614        1.5138923101
 C          6.9333149905       -3.9632508344        1.8515862022
 C          7.7468477254       -4.5040361103        0.8697484970
 C          7.5583371884       -4.1464145930       -0.4550200761
 C          6.5645866760       -3.2495825640       -0.8011245180
 H          4.6484022230        3.6581739104        3.2809353974
 H          4.0475927033        5.1541641071        2.6005441359
 H          5.3156723659        4.2543908005        1.7522285908
 H          1.2759287069        2.7580506961        2.0173742044
 H          2.3446136503        2.7711361509        3.4182463436
 H          1.7402922566        4.2922052649        2.7487883536
 H          3.8635725715        5.9706837893        0.6183225928
 H          3.1468054800        6.9239156117       -1.5068238766
 H          1.8574066755        5.5619278190       -3.1140799978
 H          1.2806620801        3.2301616155       -2.5535907279
 H         -0.3654387547        3.2278404608       -0.9852963084
 H         -2.6199343942        2.2997283025       -0.8331886986
 H         -2.8825720516       -2.1744436419        0.2243710251
 H         -3.7264603935       -4.0634678303       -0.5960611068
 H         -4.5011934575       -6.3735794000       -0.3319508221
 H         -6.6632908845       -6.8438634398        0.7555545031
 H         -8.0578399493       -4.9796656430        1.5758962587
 H         -7.2692741205       -2.6466881348        1.3149365261
 H         -8.2359226181       -0.0612814899       -0.0337178383
 H        -10.0497552240        1.6261562281       -0.1106856690
 H         -9.4919856270        4.0275842298       -0.0913548355
 H         -7.1353131175        4.7452418926        0.0067260551
 H         -5.3320148494        3.0468853320        0.0893537394
 H         -1.0502709837       -1.2460456707        0.9416882383
 H          1.1836015736       -0.3448992726        0.7966230979
 H          5.5092438422        1.8739441749        2.4737153125
 H          6.1532613204       -0.3814008929        1.8109350920
 H          1.2679106605        0.0597896436       -2.2110634410
 H          0.9396904330       -1.8549768704       -3.7154731773
 H          2.3602970997       -3.8453271577       -3.5493256534
 H          4.1959507324       -3.9574373958       -1.9059253554
 H          5.2799295391       -2.6654311390        2.2731431120
 H          7.0744215923       -4.2413505726        2.8854660457
 H          8.5261498860       -5.2015595793        1.1363988113
 H          8.1939572654       -4.5611696275       -1.2231524709
 H          6.4289570182       -2.9501084126       -1.8295942715
