89
 energy: -135.104665470761 gnorm: 0.000077670675 xtb: 6.7.1 (edcfbbe)
C            4.43495513712709        4.16948189247006        2.33151290985466
C            3.34573818388729        3.39087874433753        1.59259764254401
C            2.11395197281144        3.30742879509157        2.51826849061879
C            2.94077997821930        4.06246507284328        0.29054271043703
C            3.28369891587577        5.35719970707412       -0.06803793362103
C            2.87619487554237        5.89197433940056       -1.27931667894726
C            2.13985054932286        5.12775732514815       -2.16700750652324
C            1.79849781015537        3.82943519512635       -1.83513500316146
C            2.17263844606739        3.30939734095557       -0.60282481405983
N            1.88145154479392        1.97126778849559       -0.25915652699931
C            0.59945733061995        1.47919563411209       -0.15321167117308
C           -0.51219276921986        2.23532070324284       -0.55338886030905
C           -1.78439185559460        1.72415232674400       -0.45635021649864
C           -2.02003957098220        0.44099562132195        0.04380860517565
C           -3.38440050460386       -0.07280893776090        0.10239932235858
C           -3.67993041291992       -1.43541304585258        0.20991980592073
C           -5.02129202961353       -1.80145691173964        0.25902004894050
C           -5.45409867943423       -3.20180593046087        0.37334530960014
C           -4.69474258268769       -4.24587971734242       -0.15022036178285
C           -5.13013348984784       -5.55310190755271       -0.03044730375006
C           -6.32233432433549       -5.83539227508537        0.61640180072129
C           -7.08658776940480       -4.80201421759411        1.13498749326986
C           -6.65860653933622       -3.49399281072616        1.01083337122375
N           -5.98674031549503       -0.88172318336224        0.21711830527317
C           -5.62183737950455        0.39052306700344        0.09603660062416
C           -6.69023152583466        1.39478656765471        0.02671632481780
C           -8.02291851320416        0.99884716099080       -0.06849988125683
C           -9.02656551776115        1.94665180364229       -0.13562578283581
C           -8.71226422276545        3.29657671270405       -0.10868719878710
C           -7.38843702544918        3.69715346831998       -0.01428099851644
C           -6.38127070598162        2.75333934588799        0.05401905627651
N           -4.37014054738663        0.82584781227012        0.03120736370712
C           -0.92017715155304       -0.28715964387356        0.50096483850930
C            0.35481837923910        0.22177333481796        0.41914800816540
C            3.00144576327452        1.30566166991553        0.28194660286149
C            3.78556171255444        1.98346981179742        1.21571075630560
C            4.91574084729296        1.36062056523208        1.74321303766665
C            5.28755588613133        0.08185544352710        1.37693624537822
C            4.52347529989180       -0.57501931267919        0.42455927616733
C            3.39592234332738        0.04187203067986       -0.16439174338994
C            2.92487020209888       -0.85951171125548       -1.18208766465393
C            1.89854912575910       -0.81195124322589       -2.11950948127784
C            1.71912860226347       -1.88820787905282       -2.96544873804443
C            2.53867466996951       -3.01185984339606       -2.88490834634878
C            3.57682151052131       -3.07747916395813       -1.97616676154118
C            3.77916131973523       -1.98770636014073       -1.14067427391852
N            4.73264992785294       -1.80548215780677       -0.16153838334224
C            5.75366053059806       -2.70904100295668        0.17835163014947
C            5.93189022838877       -3.09024357277345        1.50501976093453
C            6.94054896454891       -3.97548128779869        1.83928803081179
C            7.76888960123636       -4.49368817752036        0.85717435129144
C            7.58920496789216       -4.11856459543790       -0.46429528005560
C            6.59052991218376       -3.22481432126498       -0.80654935465330
H            4.68315012516623        3.67247935276742        3.26578105041204
H            4.07587775629916        5.16437017638109        2.58243291789194
H            5.33333675016703        4.25749490613121        1.72469741013991
H            1.29505546388317        2.76229524043097        2.05700859002359
H            2.38233883880507        2.80016589163846        3.44280648083757
H            1.76342918910475        4.30922321196764        2.75854039635979
H            3.87306208679376        5.96885195663564        0.59532948889794
H            3.14759490389570        6.90577196409559       -1.53394367799247
H            1.84183188381394        5.53398078663292       -3.12219367432688
H            1.25664125299695        3.21109879457559       -2.53525366191916
H           -0.37708840909346        3.23841139224501       -0.92513234794125
H           -2.63041760530563        2.31281220965102       -0.77591207220501
H           -2.89961528772571       -2.17605930852394        0.25548574631141
H           -3.77391279847848       -4.03532271759628       -0.67464351005123
H           -4.53672195851413       -6.35487381642146       -0.44558138254515
H           -6.65718005797319       -6.85796513764958        0.71104939497505
H           -8.01889528240797       -5.01705994492587        1.63646148250742
H           -7.24343553002723       -2.67820053159732        1.40803399062734
H           -8.25007572113314       -0.05587508395584       -0.09280292516102
H          -10.05795200787612        1.63354467502387       -0.21007981212986
H           -9.49844608653550        4.03566453711986       -0.16172049324397
H           -7.14239772255991        4.74901486505568        0.00750204168760
H           -5.34617659342851        3.04773439863380        0.13300889532559
H           -1.05952970317476       -1.25526352914163        0.95886508137219
H            1.17414151615356       -0.35527105426574        0.81602686023630
H            5.52554723660733        1.87853033035145        2.46425137806408
H            6.16589300892457       -0.37837954655089        1.80185384416619
H            1.25058297982619        0.04705073768945       -2.18895957563425
H            0.92502805586838       -1.86351538059460       -3.69752018186064
H            2.36162202505302       -3.84544696042530       -3.54889963035439
H            4.20650072336095       -3.95214088515358       -1.91463840280692
H            5.27198130030162       -2.69818322398287        2.26479196930175
H            7.07454283137480       -4.26786388707274        2.87038118588235
H            8.55283808434508       -5.18757477763348        1.12118191157321
H            8.23544291252235       -4.51654009075576       -1.23281164774057
H            6.46082793826387       -2.91333924431363       -1.83240864134134
