79
 energy: -120.986416603394 gnorm: 0.000055933744 xtb: 6.7.1 (edcfbbe)
C            7.52532010715732       -1.45530791464567       -3.68158245661518
C            6.70358705121154       -2.19583380051656       -2.84775720346191
C            6.18810178076221       -1.63601345078470       -1.69522441018352
C            6.48367443038053       -0.31396232625940       -1.36243374861731
N            5.96330001074262        0.25552402176961       -0.19542014863933
C            6.73217467152184        1.15354164768580        0.55328708117350
C            8.10857523369718        0.97085304938166        0.68492188357224
C            8.86190851800179        1.86481606429262        1.42054636850587
C            8.25942029593113        2.94595107969116        2.04274639765984
C            6.89174559178171        3.12867190775701        1.91995705019835
C            6.13091185952352        2.24541144316475        1.17936853046196
C            4.67242557858571       -0.07711813750229        0.22729507940602
C            3.64462783988038       -0.25295714298921       -0.69953821501254
C            2.37299982366426       -0.57964228348638       -0.27867985491047
C            2.08551516547434       -0.74879592661161        1.07442505042384
C            0.73131099155978       -1.10620461639388        1.51804190664932
C            0.53853819488663       -2.05259115926487        2.52369892470385
C           -0.73772087615478       -2.37683474754478        2.94396233976893
C           -1.84317685856180       -1.77731840645185        2.36866598245644
C           -1.67056187046991       -0.84371584308097        1.34865092724013
C           -2.78364092955706       -0.15561428944080        0.71222499369094
N           -2.73137128271994        1.10082155715763        0.34864022703403
C           -3.94949834231746        1.39026963093929       -0.17849038073498
C           -4.41032578573384        2.64205479200373       -0.67294018060279
C           -3.58993046517003        3.77483173274390       -0.65345510027099
C           -4.06568836741557        4.98233195653670       -1.09937121568747
C           -5.37514625537591        5.07102167416182       -1.56774753575017
C           -6.18795710796473        3.96206970107446       -1.59762206542546
C           -5.73551856612495        2.70767158417266       -1.16017289285145
C           -6.55640093911858        1.51019848373272       -1.21172959010367
C           -7.84343094243321        1.52589121875590       -1.76772064697207
C           -8.61146608708284        0.38984212687632       -1.86346411946696
C           -8.11172606605667       -0.82965055864295       -1.41818658321339
C           -6.85888610032498       -0.88751655616143       -0.85957899359532
C           -6.07125861789909        0.26484140276549       -0.72465061995675
C           -4.76813164657971        0.26243533248619       -0.15179772165592
N           -4.00784572629981       -0.72483457892195        0.43505762022806
C           -4.35898109356129       -2.05859584393867        0.71916495309257
C           -3.65740498335482       -3.09703157142468        0.11841246530539
C           -3.97708951220438       -4.40711050363599        0.42590272844049
C           -4.99139820044550       -4.68434374566085        1.32699142247915
C           -5.68948916224653       -3.64788174354245        1.92607647355454
C           -5.37532153507228       -2.33477531282859        1.62923292420392
C           -0.38210707453676       -0.50918077958040        0.94028756030604
C            3.11604575476495       -0.57274094012287        1.99575813777492
C            4.38883169082699       -0.23912372042309        1.58360021193506
C            7.30627100542915        0.42917022158388       -2.20893372437202
C            7.82365901589622       -0.14255073667569       -3.35483328926035
H            7.93001631887683       -1.89777446038979       -4.57914058669950
H            6.46903338855352       -3.22175389999600       -3.09146554010391
H            5.55608227867228       -2.21926941509853       -1.04147097364162
H            8.57982829571465        0.12304969425733        0.20939147896712
H            9.92683499881107        1.71068984808055        1.51545317576724
H            8.85134280139455        3.64078898199199        2.61893386232056
H            6.41355946067761        3.97145603615681        2.39721574670582
H            5.06623976702465        2.39621042392486        1.07675761725017
H            3.85265592908560       -0.12707180088040       -1.75210167549102
H            1.59084780507079       -0.71817297078077       -1.01038505592521
H            1.39301136554288       -2.54154532310582        2.96802357934680
H           -0.87608165041134       -3.10303063634271        3.73184892519857
H           -2.83037364916982       -2.01992031671043        2.73086402084198
H           -2.58668282132986        3.66400011309903       -0.27228719969733
H           -3.43692814510772        5.86039229746010       -1.08427493478997
H           -5.75727366867113        6.02154516838837       -1.91153826665315
H           -7.19492859258746        4.08046272813186       -1.96530417206896
H           -8.25266323555419        2.44891014401458       -2.14548257773169
H           -9.59883658257099        0.44178720194584       -2.29827540265879
H           -8.70316877138461       -1.72813458870989       -1.51535926922303
H           -6.46843591511961       -1.83902125034609       -0.53499846021406
H           -2.86652309407440       -2.86964619326182       -0.58074138090095
H           -3.43232191501189       -5.21327936411152       -0.04171778305457
H           -5.23829879275217       -5.70806176442695        1.56414611384277
H           -6.47879605417553       -3.86181817488190        2.63102413102412
H           -5.91052896468137       -1.51837996347403        2.09220997734193
H           -0.26541479579426        0.24405391587131        0.17656607244110
H            2.91242111787204       -0.68439264177818        3.05064170131376
H            5.17680660546266       -0.10398643178646        2.31014344100568
H            7.53274154353477        1.45614022614119       -1.96216003604599
H            8.45836275528578        0.44479842440178       -4.00209907130214
