79
 energy: -120.898658870175 gnorm: 0.000050177613 xtb: 6.7.1 (edcfbbe)
C            9.28813204269795        2.13478701798139        0.10575595428508
C            8.21417042928971        2.44716119703394       -0.71199623361730
C            7.05885232341926        1.69183363753782       -0.66909665742242
C            6.95994574649989        0.60902795019009        0.20516316994364
N            5.79015359786089       -0.15647468266818        0.25499427112878
C            5.86671651174439       -1.54028833047438        0.44249591580670
C            6.90171784756431       -2.27632762655919       -0.13535238017597
C            6.97389627888663       -3.64236630281660        0.05462340728570
C            6.01725878209528       -4.29750883048344        0.81308639065747
C            4.98534160175123       -3.57183381717600        1.38606473693609
C            4.90808425246953       -2.20449251573427        1.20875991921987
C            4.54433182602624        0.46102360858930        0.11649437032624
C            4.31413412047814        1.72997407838152        0.65108250188702
C            3.08292735650521        2.33337900940518        0.51326786656122
C            2.03450557857652        1.69199961045568       -0.14787744271774
C            0.71617025893550        2.31865545569391       -0.27806846147255
C            0.59734932730762        3.70659142032489       -0.48444195169550
C           -0.66615261359910        4.29003140232841       -0.56038654577691
C           -1.79952174866143        3.52831897375071       -0.46955143363540
C           -1.71293100262338        2.10998122437543       -0.31318394744796
C           -2.91308352006123        1.38900519501535       -0.24572359555452
N           -4.10032618723527        1.98882824964239       -0.00797506211077
C           -4.99351245088171        1.03319224553400        0.14015099940815
C           -6.37326942625433        1.17780294807608        0.47300308087405
C           -6.91122203826381        2.43830660177596        0.73363730920971
C           -8.23715915812493        2.57123798671483        1.09471806842361
C           -9.02356001765797        1.43439512991495        1.20374598967065
C           -8.49973479672978        0.18098009863245        0.94072089461062
C           -7.16499493630062        0.00885615830801        0.55745566434464
C           -6.59376832791436       -1.28999178782677        0.23488532488569
C           -7.37399998636145       -2.44222994657783        0.21068976085124
C           -6.86100690176700       -3.67982156166976       -0.13157683009090
C           -5.51676287180271       -3.80012176644163       -0.49284457534650
C           -4.70584691090775       -2.70041754434304       -0.47837498486775
C           -5.19614227084642       -1.42238183899166       -0.09946518420148
C           -4.41078302679865       -0.26929007331507       -0.06656575431150
N           -3.07806659190683       -0.02246308128706       -0.31249074023982
C           -2.07455557423637       -0.92606914406135       -0.67588752406731
C           -1.42364436821960       -0.78139045677662       -1.90269273125683
C           -0.40677172384156       -1.64941140875570       -2.24876926783822
C           -0.02451426445087       -2.66339429919727       -1.38257500764277
C           -0.67060305216482       -2.80897457129971       -0.16359947559566
C           -1.69088599992465       -1.94968750885872        0.19334975608958
C           -0.42091609496822        1.54400451539774       -0.19137106434102
C            2.27351860484249        0.42385732560723       -0.68166403651699
C            3.50440427497960       -0.18089501800818       -0.55887813398408
C            8.04281394468341        0.30090808580739        1.02911741659566
C            9.19618934537925        1.05847453751350        0.97339248601027
H           10.19029971700108        2.72592838836211        0.06726237340383
H            8.27937973893933        3.28085754810557       -1.39541646603148
H            6.22682621889324        1.92930267417105       -1.31560584380584
H            7.64185981861748       -1.76988453280241       -0.73741077191035
H            7.77862495584444       -4.20063875130018       -0.40051986407588
H            6.07574541442342       -5.36562730311011        0.95668133343191
H            4.23859404265147       -4.07311697434634        1.98399954346503
H            4.10933463915550       -1.63951077204803        1.66633875939887
H            5.10684919407268        2.23148343808285        1.18704713042528
H            2.91857456573705        3.30402579736516        0.95689045698744
H            1.48332824452875        4.31277444768810       -0.59156959692078
H           -0.74663406390992        5.35901068143152       -0.69726099100780
H           -2.78248981013849        3.96533509933097       -0.52996817936382
H           -6.25866513667930        3.29324746808199        0.65022484907027
H           -8.65546093660570        3.54589444200720        1.29602334854311
H          -10.06001569251704        1.52282500253858        1.49649941849488
H           -9.15335883990941       -0.67046889616673        1.04337759668345
H           -8.42299511333214       -2.38499442144034        0.45436913711684
H           -7.50290866071379       -4.54759653838987       -0.13523368260452
H           -5.12160624469978       -4.76078075332102       -0.78897875129616
H           -3.67670898469647       -2.79622272618344       -0.78229500673663
H           -1.72154434562622        0.01542572661127       -2.56788481931668
H            0.08950713725228       -1.53717390169206       -3.20182420035657
H            0.77570441952689       -3.33504897752201       -1.65405778043410
H           -0.37130834877288       -3.59324647720140        0.51584674957272
H           -2.19230802642355       -2.05136563177439        1.14492110349746
H           -0.31717078392794        0.49888154596262        0.04822682920169
H            1.48848306264355       -0.08224592663498       -1.22340362724570
H            3.67491410023480       -1.15469780902177       -0.99433315281864
H            7.96875144951262       -0.53051739921493        1.71472508897225
H           10.02627211853876        0.81156937759326        1.61867040354652
