79
 energy: -120.988701959910 gnorm: 0.000061982353 xtb: 6.7.1 (edcfbbe)
C            7.22627386943440       -3.60488719278720        1.14502124555638
C            6.46788300913863       -2.78653364688620        1.96611009902369
C            5.98897355767877       -1.57748831805069        1.50078209801705
C            6.25708225678755       -1.17128229141739        0.19352967759108
N            5.77403975399005        0.05215231126341       -0.28403845644448
C            6.55822923759453        0.82075329352129       -1.15312357308341
C            7.94113611190417        0.88770602554718       -0.98636040374726
C            8.71030545751560        1.64300609943677       -1.84995627771288
C            8.11735613286758        2.34835186483076       -2.88429948670826
C            6.74351692493082        2.28876146970799       -3.05153937976662
C            5.96666087294076        1.52934538899524       -2.19859526717035
C            4.51600908087605        0.51283915118219        0.11309930811445
C            3.45801891073377       -0.37754575516033        0.30007862075601
C            2.21956433396907        0.08049843893941        0.69610517439664
C            1.99107315097746        1.43815181213949        0.91669407846213
C            0.66905439552263        1.91497288954372        1.34329303075725
C            0.54189072646761        2.93173934806768        2.28758583554822
C           -0.71025233670628        3.37448034024127        2.67556511311184
C           -1.84994817280120        2.79730071506319        2.15071172078213
C           -1.74331784024932        1.76169392788657        1.22181714725185
C           -2.96951899309280        1.17631775472452        0.70313859272654
N           -4.06738361423674        1.86237711760777        0.50965727133395
C           -4.97982876575377        0.98244737592950        0.02187793185859
C           -6.31908148315431        1.24689440314777       -0.37831253701657
C           -6.85384803117318        2.53758741782394       -0.30946645124390
C           -8.13934667713997        2.77802720924054       -0.72517778019772
C           -8.90638468217954        1.72513583587982       -1.22019874111680
C           -8.39201550782291        0.45152194629719       -1.28795365788649
C           -7.08512882246538        0.16336657589817       -0.86522143113738
C           -6.52320328405237       -1.17599969854820       -0.89451044018701
C           -7.28042780638539       -2.28114080318321       -1.30823683690410
C           -6.77215908850274       -3.55835656749859       -1.30200550309174
C           -5.47359321597467       -3.79041956511248       -0.86042679544624
C           -4.69555371058772       -2.73500493269318       -0.45339043239125
C           -5.18531011151591       -1.42121108929266       -0.47811265771453
C           -4.42133925963252       -0.29139705685704       -0.07107242942666
N           -3.12170896125449       -0.15117542782451        0.36172986971846
C           -2.11581436896752       -1.13205787737775        0.46631971002686
C           -1.59727588057488       -1.72681577923268       -0.68065747652937
C           -0.58010721078518       -2.65653782282218       -0.56974082233550
C           -0.07523092028426       -2.99219510264376        0.67670187986897
C           -0.59213808557841       -2.39866361503672        1.81675792343253
C           -1.61133384602103       -1.46850494839666        1.71698779144627
C           -0.48228615766955        1.34535021001134        0.80914850043127
C            3.05052848585883        2.32337888542010        0.72566873682637
C            4.29248225518370        1.87284752841096        0.33146167054802
C            7.01705981364167       -2.00140874963646       -0.63046742282104
C            7.49902751178294       -3.20443865023580       -0.15278983332592
H            7.60260692160423       -4.54692340654206        1.51391715012317
H            6.25518759159710       -3.08715073476762        2.98164006178270
H            5.40772233040842       -0.93630027196150        2.14729839461267
H            8.40494172861515        0.34657103257357       -0.17456005089183
H            9.78016478461921        1.68787916660673       -1.70831480730402
H            8.72146192743515        2.94016797498180       -3.55502357905453
H            6.27280180861720        2.83123164630256       -3.85829836709183
H            4.89657590009534        1.47671987677041       -2.33683544245358
H            3.61525154838939       -1.43289747340446        0.13107071027541
H            1.41883057715516       -0.62809015127768        0.84977883918878
H            1.42771624248931        3.36696046812566        2.72616822349899
H           -0.79669090714591        4.17078997901896        3.40035965240789
H           -2.83250097253802        3.12973574980027        2.44570931924791
H           -6.22242113894156        3.32487812583494        0.07203183536782
H           -8.55633692451653        3.77309333114619       -0.67529076304943
H           -9.91703703509262        1.91046421647268       -1.55477518138685
H           -9.02275552708484       -0.33020251115033       -1.68071423377388
H           -8.29763358985645       -2.14116753119449       -1.63654448250823
H           -7.38651922040078       -4.38448167132416       -1.62871187048006
H           -5.07952373774032       -4.79566882824255       -0.83349568575316
H           -3.69593328984899       -2.92277116168926       -0.09478333623769
H           -1.99637034949408       -1.45459143540856       -1.64698732822229
H           -0.17591912513744       -3.11516967451284       -1.45958103214189
H            0.72374305959270       -3.71362911238062        0.75834300495065
H           -0.19894248944175       -2.65805250609770        2.78819154122818
H           -2.01705489580848       -0.99533105694772        2.59872214552425
H           -0.38235448871705        0.59853740203890        0.03664830090742
H            2.89516278285591        3.38156754570062        0.87572069996641
H            5.10307473474631        2.57305124407264        0.19172058787030
H            7.22379612857207       -1.69620415961226       -1.64586162843390
H            8.08563108922407       -3.83770309834942       -0.80211133750002
