  79
       -120.98862071
 C          7.2790349448       -3.5530103659        1.2197385553
 C          6.5013740273       -2.7300871851        2.0178596071
 C          6.0107888927       -1.5367933207        1.5251457294
 C          6.2864587034       -1.1512641135        0.2131777720
 N          5.7915095974        0.0564640348       -0.2908354330
 C          6.5710895685        0.8237832963       -1.1645951972
 C          7.9527729782        0.9070511138       -0.9952496116
 C          8.7159133496        1.6626600735       -1.8639275635
 C          8.1182739141        2.3520836521       -2.9061954107
 C          6.7455718040        2.2766397696       -3.0758543022
 C          5.9747585436        1.5169635663       -2.2177204648
 C          4.5273724189        0.5099308119        0.0968544041
 C          3.4748072883       -0.3876312860        0.2796100722
 C          2.2320185061        0.0618436815        0.6724414433
 C          1.9955823674        1.4176113184        0.8956318445
 C          0.6737479914        1.8872137521        1.3309147879
 C          0.5521846083        2.8943641955        2.2862788455
 C         -0.6973014777        3.3338397786        2.6858454325
 C         -1.8397304751        2.7631983010        2.1599893318
 C         -1.7385543777        1.7368949922        1.2201833367
 C         -2.9697949412        1.1606238312        0.7030456759
 N         -4.0637901353        1.8550324341        0.5174638998
 C         -4.9853581855        0.9829937019        0.0326595063
 C         -6.3227078301        1.2589103828       -0.3662659970
 C         -6.8443710769        2.5552412048       -0.3038946980
 C         -8.1252750500        2.8076645826       -0.7267965507
 C         -8.9003777204        1.7615638389       -1.2235691831
 C         -8.3996469115        0.4821104067       -1.2831025381
 C         -7.0988614924        0.1813749188       -0.8505036509
 C         -6.5525507482       -1.1646918050       -0.8676966115
 C         -7.3268962725       -2.2664938600       -1.2578129146
 C         -6.8336794070       -3.5494723117       -1.2374745642
 C         -5.5333074414       -3.7904909384       -0.8060697598
 C         -4.7389838730       -2.7387550507       -0.4214783656
 C         -5.2142558015       -1.4200020530       -0.4589255851
 C         -4.4367909716       -0.2946706090       -0.0653267425
 N         -3.1333955835       -0.1647680104        0.3593557668
 C         -2.1306997873       -1.1510486945        0.4373223392
 C         -1.6439161754       -1.7432241373       -0.7247249196
 C         -0.6309430377       -2.6804117608       -0.6431761552
 C         -0.0986422417       -3.0259821905        0.5888889122
 C         -0.5833282727       -2.4343303572        1.7439173006
 C         -1.5983966379       -1.4969807919        1.6737364591
 C         -0.4801782555        1.3222638457        0.7975458489
 C          3.0485720560        2.3104914338        0.7041337815
 C          4.2940157022        1.8687220655        0.3112799388
 C          7.0655128443       -1.9861823722       -0.5877700724
 C          7.5589274850       -3.1732867130       -0.0827602365
 H          7.6642652208       -4.4828001971        1.6099083356
 H          6.2827842372       -3.0143568884        3.0368466459
 H          5.4153281744       -0.8912749272        2.1541510327
 H          8.4204662600        0.3787414410       -0.1773063021
 H          9.7848444634        1.7201382043       -1.7202173192
 H          8.7177522577        2.9440601220       -3.5809232881
 H          6.2711678885        2.8064979522       -3.8887705562
 H          4.9058343850        1.4509866458       -2.3585117742
 H          3.6407427754       -1.4418547671        0.1117061829
 H          1.4349438814       -0.6516140820        0.8233793569
 H          1.4408803280        3.3240627518        2.7245081408
 H         -0.7794541827        4.1216216185        3.4203733492
 H         -2.8206549764        3.0930809621        2.4632209501
 H         -6.2064168767        3.3373590924        0.0774924160
 H         -8.5322528535        3.8070959010       -0.6816249692
 H         -9.9063231179        1.9569590360       -1.5664819601
 H         -9.0351545245       -0.2938531738       -1.6796772761
 H         -8.3464397261       -2.1193006068       -1.5755290507
 H         -7.4614924422       -4.3731058173       -1.5442887821
 H         -5.1508659308       -4.7998598513       -0.7685494853
 H         -3.7383033037       -2.9331332319       -0.0692900242
 H         -2.0647086678       -1.4635731437       -1.6796058928
 H         -0.2518535762       -3.1373718304       -1.5447746473
 H          0.6969430615       -3.7533683171        0.6476273427
 H         -0.1688079478       -2.7017761336        2.7042075839
 H         -1.9800178398       -1.0264576034        2.5674357574
 H         -0.3847710923        0.5816652552        0.0183053187
 H          2.8853772482        3.3674751132        0.8545436225
 H          5.1001191072        2.5741918232        0.1718519524
 H          7.2777558247       -1.6974721005       -1.6068100975
 H          8.1591047319       -3.8113606314       -0.7148134221
