57
 energy: -90.407551485756 gnorm: 0.000151850727 xtb: 6.7.1 (edcfbbe)
C            4.85405131286183        3.58489856005937       -0.01602794847046
C            5.32538609588618        2.51717561979838       -0.76185720028941
C            4.66249227328053        1.30566422589385       -0.74523494906543
C            3.51652641270290        1.14695935806060        0.02993097730280
N            2.83449367892789       -0.07798021557426        0.05141691350857
C            3.54842772151383       -1.27925855673400        0.06902643404715
C            3.07276396198128       -2.40235754497592       -0.60801037899785
C            3.78682696341476       -3.58410167883418       -0.58442208949874
C            4.98543493525296       -3.66735155764474        0.10533789074404
C            5.46527379451970       -2.55378488157328        0.77514826420908
C            4.75528273550057       -1.36917650517184        0.76324654393676
C            1.44391544083277       -0.07755342987277        0.05491703468634
C            0.69871497594521       -1.00897847967673        0.75182565322903
C           -0.69879868414887       -1.00865852922049        0.75222327471837
C           -1.44397051782655       -0.07720133548605        0.05533771315277
N           -2.83456555795011       -0.07763930100797        0.05182667933129
C           -3.51650403794911        1.14733476536853        0.03042592043125
C           -4.66245086263010        1.30622712321093       -0.74473547460761
C           -5.32521242494862        2.51781016624064       -0.76124940498462
C           -4.85374814505311        3.58541847759204       -0.01533262217661
C           -3.71446752466177        3.43085708629217        0.75679772307046
C           -3.05161450969512        2.21990128092335        0.78818193457460
C           -3.54853003682141       -1.27891335971483        0.06884627245195
C           -3.07279050316671       -2.40180072967171       -0.60850142306475
C           -3.78687560050961       -3.58354470011534       -0.58543017018188
C           -4.98556534121247       -3.66702371672745        0.10414766570855
C           -5.46549937682197       -2.55366675873489        0.77423253832085
C           -4.75551814865677       -1.36905115763739        0.76280859687668
C           -0.72034592452777        0.89100116440492       -0.68481165082241
N           -1.21643854097483        1.84793625230164       -1.46768486403268
S           -0.00003477317693        2.66308101367012       -2.13203508300556
N            1.21639826662110        1.84756077366139       -1.46809701682669
C            0.72029928417526        0.89071000188989       -0.68516082181018
C            3.05179925579159        2.21963293353026        0.78764704545365
C            3.71478972479555        3.43051339176401        0.75616760975241
H            5.37170269171039        4.53207488290966       -0.03625665511177
H            6.21100878605163        2.63142704958925       -1.36963275078054
H            5.02230324135789        0.47687618434369       -1.33709359349061
H            2.14542871507734       -2.33782351384058       -1.15800128211129
H            3.40830442099571       -4.44462824166678       -1.11640042153700
H            5.54127390430243       -4.59245933981547        0.11980316965449
H            6.39688025461262       -2.60967544433055        1.31886990764937
H            5.12750061775285       -0.50507473034606        1.29365119309144
H            1.21487976979922       -1.76201362715827        1.32840806534921
H           -1.21498826664677       -1.76178485198140        1.32868363852799
H           -5.02235221088330        0.47752966369629       -1.33666773373324
H           -6.21089079366436        2.63216827166811       -1.36892018479111
H           -5.37136726817706        4.53261332745330       -0.03536593471400
H           -3.34450554536353        4.25699279050834        1.34644989728645
H           -2.17065667860757        2.09521507301255        1.40154115034485
H           -2.14534972230388       -2.33710973425864       -1.15829862584072
H           -3.40827744510527       -4.44389845346534       -1.11763825145370
H           -5.54148809431845       -4.59209899233372        0.11812216580171
H           -6.39727811362643       -2.60968602398874        1.31765912543898
H           -5.12784740821719       -0.50511611356695        1.29340302501722
H            2.17087538718747        2.09507196794982        1.40107611494676
H            3.34489643478885        4.25675809935199        1.34570739278966
