  57
        -90.35273235
 C          4.9574521722        3.2490963631        0.4204304974
 C          5.3575581527        2.2497770548       -0.4522509392
 C          4.6544581926        1.0637317944       -0.5239549398
 C          3.5373093437        0.8666127589        0.2851404068
 N          2.8109245315       -0.3296448847        0.2136320072
 C          3.4876380973       -1.5407247324        0.0843339110
 C          2.9533736140       -2.5761232201       -0.6877118865
 C          3.6274219354       -3.7750036007       -0.8032894263
 C          4.8411991941       -3.9635380977       -0.1607549472
 C          5.3794546644       -2.9374030287        0.6014373941
 C          4.7127855952       -1.7359066499        0.7283254238
 C          1.4327318371       -0.2905941663        0.2300167211
 C          0.6812076338       -1.3471647183        0.8167255445
 C         -0.6813361048       -1.3461242239        0.8168151323
 C         -1.4318761683       -0.2888313436        0.2294830053
 N         -2.8099306876       -0.3281465607        0.2138304545
 C         -3.5395757677        0.8664013752        0.2784373797
 C         -4.6602276627        1.0525025215       -0.5285322271
 C         -5.3684699686        2.2358223278       -0.4635881452
 C         -4.9701772904        3.2435021944        0.4002891260
 C         -3.8586014415        3.0588776977        1.2069758890
 C         -3.1463374601        1.8783255083        1.1532432190
 C         -3.4849673731       -1.5411722175        0.0898991904
 C         -2.9541611789       -2.5752060246       -0.6861710551
 C         -3.6259642730       -3.7758160325       -0.7960281493
 C         -4.8336586950       -3.9673855269       -0.1430451239
 C         -5.3682784022       -2.9426610903        0.6234581775
 C         -4.7040823445       -1.7391435867        0.7440602585
 C         -0.7187685763        0.7959978229       -0.3234911620
 N         -1.2379996439        1.8522849947       -0.9403382445
 S          0.0024787361        2.7950023075       -1.4930198514
 N          1.2419625354        1.8513812343       -0.9381058239
 C          0.7208641335        0.7954832477       -0.3226033778
 C          3.1426781170        1.8699090601        1.1692629477
 C          3.8496169093        3.0532100804        1.2297303175
 H          5.5051923361        4.1781079246        0.4672705367
 H          6.2158010968        2.4003509169       -1.0902630206
 H          4.9510244391        0.2914607557       -1.2186477746
 H          2.0202884261       -2.4199986951       -1.2080770263
 H          3.2077175022       -4.5653191780       -1.4078238354
 H          5.3658841337       -4.9018409731       -0.2557153296
 H          6.3235845865       -3.0782477113        1.1062624909
 H          5.1257327313       -0.9419958118        1.3329225724
 H          1.2203454174       -2.1441532371        1.3062939790
 H         -1.2216100178       -2.1422024261        1.3065385341
 H         -4.9558732593        0.2736139087       -1.2162300446
 H         -6.2300362790        2.3772352466       -1.0992666971
 H         -5.5224201084        4.1700690742        0.4424504965
 H         -3.5472656207        3.8393344600        1.8853101805
 H         -2.2876575481        1.7251130211        1.7898527873
 H         -2.0258595535       -2.4164752226       -1.2142821996
 H         -3.2093947646       -4.5647389076       -1.4045737277
 H         -5.3567682475       -4.9068959308       -0.2340178980
 H         -6.3076745793       -3.0857381390        1.1362467657
 H         -5.1142794665       -0.9458070077        1.3512922650
 H          2.2862685469        1.7077184208        1.8068980931
 H          3.5371626955        3.8271286299        1.9150144905
