  40
        -70.12143091
 C          5.4761902481       -1.1941217555       -2.0695597573
 C          4.4796946376       -0.6093789706       -1.1265713251
 N          3.2329587802       -0.7712742703       -1.3249701501
 C          2.3498155673       -0.2090960640       -0.4238654727
 C          0.9913586556       -0.3686944946       -0.6174153579
 C          0.0930471670        0.2030600615        0.2882851733
 N         -1.3019433643        0.0406827111        0.0955183646
 C         -1.8683276756       -1.2060414211        0.1961071200
 C         -1.1287078479       -2.3581870420        0.4975184772
 C         -1.7442788652       -3.5819113981        0.5848599633
 C         -3.1339511270       -3.7037640667        0.3882008248
 C         -3.8920301105       -2.5873277504        0.1237453581
 C         -3.2871247782       -1.3364205161        0.0287495631
 O         -4.0723091135       -0.2633173346       -0.1972309396
 C         -3.5065163404        0.9576022665       -0.2903923812
 C         -4.3305544830        2.0536533186       -0.5254007956
 C         -3.7882508958        3.3109367486       -0.6609514262
 C         -2.3916207877        3.4890917172       -0.5815046633
 C         -1.5619918262        2.4238176949       -0.3429649031
 C         -2.0867019668        1.1338328487       -0.1667258574
 C          0.5598917673        0.9369750110        1.3930492019
 C          1.9028847226        1.0942328774        1.5952277158
 C          2.8332353368        0.5284225067        0.6922217196
 C          4.2415127708        0.6819588255        0.8733835872
 O          4.8218432717        1.2744308068        1.7654699767
 O          5.0450846865        0.0660513393       -0.1085637741
 H          6.1496892003       -1.8542468686       -1.5270560821
 H          4.9574081822       -1.7437248587       -2.8473754495
 H          6.0733097419       -0.3976644406       -2.5092765460
 H          0.6391248197       -0.9176778535       -1.4759432389
 H         -0.0670222490       -2.2691058234        0.6622715616
 H         -1.1598866073       -4.4587067638        0.8120835936
 H         -3.6020575321       -4.6719425705        0.4581770532
 H         -4.9603790848       -2.6461138708       -0.0113499369
 H         -5.3927329566        1.8837584760       -0.6030259085
 H         -4.4269763228        4.1597094006       -0.8417444176
 H         -1.9729946606        4.4734971497       -0.7150537736
 H         -0.4937192216        2.5621500570       -0.2937531875
 H         -0.1561462252        1.3569148775        2.0841236338
 H          2.2858962169        1.6451696240        2.4388320691
