79
 energy: -131.410078708133 gnorm: 0.000075490025 xtb: 6.7.1 (edcfbbe)
C            3.81115799013885       -5.52522059824043        1.74385835760968
C            4.18735000934580       -4.18036572469451        1.61843985545184
C            3.23363935173423       -3.22626728894877        1.39204147636685
C            1.86457547467712       -3.60032059953294        1.26473412540461
C            0.80425727800318       -2.70139550882906        0.99439585600596
C           -0.52837793787472       -3.07811633846794        1.33844097670324
C           -1.57133867329964       -2.21040836146874        1.27409283245244
C           -1.36945537636735       -0.87308011968307        0.83472918982951
N           -2.43061471097911        0.01959968091571        0.76303432381685
C           -2.40915448113382        1.33237920025501        1.20403257013119
C           -1.39779242643106        2.03767522357294        1.83976483728217
C           -1.65095894520630        3.34658149284506        2.21033054399928
C           -2.88604066328093        3.94392877590876        1.96560603569667
C           -3.91229331169357        3.23898847356430        1.36288351541874
C           -3.67738696279076        1.92435571146599        0.98517570235318
C           -4.49162031394188        0.91247808243473        0.38189279187404
C           -5.79251870679695        0.83716363025996       -0.08484617572865
O           -6.74034301697420        1.81121779715444       -0.05945313978668
C           -7.85475966642168        1.27034062891257       -0.63681773269728
C           -9.06909470606229        1.90025174485733       -0.82599277025946
C          -10.07542383137064        1.16662748852149       -1.43491660695440
C           -9.87067146352640       -0.15078169852588       -1.83991433692131
C           -8.65595741928088       -0.77909656232918       -1.65117156598832
C           -7.62906225421467       -0.06312218898598       -1.04210289100421
C           -6.27149062105810       -0.34937405398729       -0.68095490293677
C           -5.43786204777131       -1.46475441193083       -0.83291961682310
C           -4.14138850815058       -1.41415178173060       -0.37160347929736
C           -3.68245990664461       -0.25008998851098        0.25251871048205
C           -0.09057414646715       -0.49403706973092        0.41151848471759
C            0.96463225836771       -1.37728393654764        0.43839186568304
N            2.16774354156144       -0.99436519491095       -0.16885533970880
C            2.79129495756954       -1.68007919453098       -1.19583782739670
C            2.42431203263267       -2.86526044252080       -1.81671779735696
C            3.23055197136756       -3.33260202667071       -2.83788587413934
C            4.36702956252076       -2.63632782537946       -3.24580638246258
C            4.72500035656190       -1.44213345864926       -2.64852959738807
C            3.93021672510199       -0.95632881339262       -1.61984284451161
C            3.98016457251789        0.22319004318412       -0.80612260598247
C            4.82281421250748        1.31710637405968       -0.69092459428393
O            5.93699479672443        1.58644267406226       -1.42245876487054
C            6.42865627737844        2.76724213860416       -0.94211767515682
C            7.55514288176221        3.43025750048500       -1.39059030957802
C            7.88174823563422        4.62049517322413       -0.76169332234294
C            7.10747286623354        5.12840236339913        0.27907986619154
C            5.98168593169905        4.46494598490844        0.72562400748510
C            5.63282432934709        3.26789747568458        0.10941329621396
C            4.57402116712632        2.31212522287462        0.27667278389222
C            3.48590960828616        2.21141729036854        1.14983895560997
C            2.63386066887539        1.13458071194817        1.05170221381293
C            2.86922533177023        0.16465713387183        0.07412336095940
N            1.52888971989496       -4.91024243683037        1.45486733435283
C            2.45134137979778       -5.80756894720567        1.67621536452575
H            4.53598872399083       -6.30622802074579        1.90359681375902
H            5.22639599725765       -3.89865052562193        1.72053520172547
H            3.50644428185929       -2.18360895403736        1.37816250207296
H           -0.66773849813435       -4.08526461777867        1.69862859562432
H           -2.55428182008935       -2.50863115281387        1.60448744933117
H           -0.44700431324130        1.57765389638687        2.05480389034850
H           -0.87641224191904        3.91486360400025        2.70301597253038
H           -3.04555223154319        4.96910577915176        2.26503010274876
H           -4.87840911442714        3.68856466257549        1.19116967307531
H           -9.22065136022636        2.92024649922736       -0.50989643824348
H          -11.03786302897407        1.62750781374495       -1.59805288633250
H          -10.68091438917090       -0.68764120338227       -2.31046108501343
H           -8.49979603452992       -1.79943950549957       -1.96557221749544
H           -5.81193227091046       -2.35104799310320       -1.31978163462180
H           -3.48083332857484       -2.25526748496432       -0.50885263249464
H            0.04938900302976        0.47973044853379       -0.03563260238961
H            1.54236820035392       -3.40624307957523       -1.51094612928375
H            2.97120456995996       -4.25650496093582       -3.33306550151757
H            4.97136612137687       -3.03588758354959       -4.04661167654130
H            5.59685751622163       -0.89190203025827       -2.96848539704283
H            8.14977131895070        3.03056786678286       -2.19671513693864
H            8.75558399323658        5.16491783016240       -1.08624733135898
H            7.39673218259781        6.05948432150940        0.74329408916967
H            5.38366442252098        4.86069014422293        1.53190284369436
H            3.32537120434190        2.97193407096682        1.89724259187007
H            1.80375647473365        1.02523801992882        1.73098706223394
H            2.09085097972648       -6.82355233817545        1.79402478314158
