79
 energy: -131.410035593714 gnorm: 0.000052666374 xtb: 6.7.1 (edcfbbe)
C            3.78434436024933       -5.38215016828350        2.11036905878807
C            4.16790823338296       -4.05362664670430        1.87924981872657
C            3.22057223873613       -3.11594386546105        1.57170849939177
C            1.85063554292961       -3.49272253802217        1.46318415449863
C            0.79438979138744       -2.61407618760996        1.12022515518514
C           -0.54105761466548       -2.96588885189118        1.47991838480025
C           -1.58168302295177       -2.10255594842731        1.35348585563745
C           -1.37593847292255       -0.79763993830281        0.82662056979069
N           -2.43626538992903        0.08909029199918        0.69767443393722
C           -2.41567147842913        1.42771901509961        1.05404372890149
C           -1.39987945019826        2.17732989932365        1.62904055817316
C           -1.65574892039028        3.50576914656517        1.91995960861183
C           -2.89786556236810        4.08000065796614        1.65656688429676
C           -3.92823189573680        3.33290728014847        1.11473022908525
C           -3.69050677867203        1.99836076809436        0.81717150141677
C           -4.50824037562012        0.94608335351687        0.29303296502689
C           -5.81768271032279        0.83354105709501       -0.14108183512542
O           -6.77286890245591        1.80064389344864       -0.15520795745205
C           -7.89552436303169        1.21666122466786       -0.67147666397678
C           -9.11927739424416        1.82471320121731       -0.87105916271800
C          -10.13263910262774        1.04758951166033       -1.41047596539990
C           -9.92542489790611       -0.29070272012564       -1.73840849657238
C           -8.70156635485641       -0.89744915488241       -1.53846380122042
C           -7.66760523300254       -0.13785838420645       -0.99800795742349
C           -6.30018872053039       -0.39154716624936       -0.65013257625706
C           -5.46132523109326       -1.50902757605373       -0.74905423759000
C           -4.15649307059144       -1.42159181581091       -0.31786279274287
C           -3.69411366791916       -0.21817851462114        0.22398932436920
C           -0.09423008325878       -0.44997120360081        0.38417963721038
C            0.95940479675576       -1.33049320207301        0.47735803070319
N            2.16957499109983       -0.98859508528861       -0.14050051500004
C            2.80538451020408       -1.74006524498731       -1.11209068814241
C            2.44082012647391       -2.95962222533248       -1.66413630129462
C            3.26205638067327       -3.49482042157627       -2.63892144113449
C            4.41137624965810       -2.83289824791876       -3.06769882690059
C            4.76815746051026       -1.60656350815380       -2.53876144068751
C            3.95825953621225       -1.05222249029071       -1.55763027874611
C            4.00534926306237        0.17287037993984       -0.81395863785402
C            4.86060534744079        1.26077492913209       -0.74175838139533
O            5.99435489019126        1.47368320308930       -1.46176772927073
C            6.49563187796725        2.67028905259172       -1.03314449948540
C            7.64414651494230        3.28938419256068       -1.48857046585497
C            7.97806683155791        4.50527859490576       -0.91505467370476
C            7.18928451692463        5.08053958869901        0.07869034729861
C            6.04156496819263        4.46089036065389        0.53225303212867
C            5.68539139320033        3.23889925163477       -0.02825545873459
C            4.60746081337011        2.30980878719272        0.16577805715784
C            3.50144237314336        2.27115024422473        1.02114447967804
C            2.63711085806347        1.20109083650116        0.96542660151051
C            2.87828968582040        0.17613058823904        0.04739938624118
N            1.50801691198148       -4.78300875021149        1.75122347812859
C            2.42385763279351       -5.66350513860883        2.05248990408163
H            4.50407907917941       -6.15075611963521        2.33846557426926
H            5.20756456145219       -3.76906347283135        1.96614598708761
H            3.49982918086978       -2.07926618782731        1.47845425982049
H           -0.68385697245694       -3.94665380371135        1.90560173417749
H           -2.56612372060683       -2.37617318368594        1.70017717745079
H           -0.44327594772288        1.73735341704679        1.85923052113351
H           -0.87761224088944        4.10806227578469        2.36423944776435
H           -3.05930766985330        5.12117493421236        1.89313270286970
H           -4.89970810779913        3.76529972905850        0.92960604630405
H           -9.27251101027623        2.86103663255839       -0.61457086472214
H          -11.10246156608575        1.49043078631346       -1.57976167339121
H          -10.74114060666549       -0.86160067112470       -2.15652558382498
H           -8.54358339774521       -1.93407655237015       -1.79290742316930
H           -5.83838896372769       -2.42639101674300       -1.17180718576277
H           -3.49275925058745       -2.26568089451541       -0.41582635805070
H            0.05044671423558        0.49131024301238       -0.12652912031341
H            1.54976654692115       -3.47480560221551       -1.34047782907240
H            3.00502217969784       -4.44621601803872       -3.08035682133555
H            5.02703043163427       -3.28557776061529       -3.83074358572401
H            5.65090031128342       -1.08380672904749       -2.87458940258128
H            8.24973852458536        2.83758375109189       -2.25819756440763
H            8.86931546615778        5.01654067888996       -1.24609540245803
H            7.48489476630402        6.02959569042066        0.50055576883204
H            5.43301339375450        4.90855177986578        1.30268483728028
H            3.33746618434502        3.07295545221985        1.72332635395464
H            1.79394178718426        1.13791738577833        1.63445456664140
H            2.05732208097996       -6.66533798923689        2.24768924873347
