79
 energy: -131.504158686068 gnorm: 0.000065843671 xtb: 6.7.1 (edcfbbe)
C            3.89474662908418       -5.18779033185686        1.71056332431837
C            4.17619554333194       -3.84092565290863        1.88213625898359
C            3.16326257234520       -2.91591276951487        1.70421178676454
C            1.89354988054003       -3.37253179414859        1.34769606149840
C            0.76423085238966       -2.44979694621888        1.13450007115161
C           -0.48222186476908       -2.76941678681535        1.66698235676174
C           -1.55688488289116       -1.91368932190171        1.54177567399112
C           -1.41255459395190       -0.71248829324496        0.84949492387985
N           -2.50045223035463        0.15873443478359        0.70807606051161
C           -2.49383207296923        1.51277121997119        0.98682006287903
C           -1.47624087881632        2.31294716437452        1.48601972612529
C           -1.75003359721887        3.65000091307074        1.70251435678547
C           -3.00908134378802        4.18754315123130        1.44022155742027
C           -4.03486605852666        3.39420583067406        0.96664890497045
C           -3.77916313873218        2.04742120932344        0.74157536115300
C           -4.58721985660491        0.95470544391212        0.28811329271243
C           -5.90297977784124        0.80112003706458       -0.12614098534848
O           -6.86861454781443        1.75842671988535       -0.19411346369226
C           -7.98957716250028        1.13084800346922       -0.65793134475156
C           -9.22238108359999        1.71444465635185       -0.88497441332782
C          -10.23260853387894        0.89591278973595       -1.36052041270284
C          -10.01637197555698       -0.45871863508476       -1.60045357257698
C           -8.78394313328812       -1.03985077777791       -1.37221059760720
C           -7.75422850240446       -0.23844266008687       -0.89510398060473
C           -6.37543024353021       -0.45542992709837       -0.54456418499402
C           -5.53066472785858       -1.56751348331212       -0.56816363458144
C           -4.22133723939149       -1.44071495416397       -0.15852675295068
C           -3.76519167108043       -0.19669220228102        0.28087252209087
C           -0.18420662848091       -0.39547169485428        0.27898253412683
C            0.89869109639101       -1.25370609549952        0.41693404632729
N            2.11120210016574       -0.93244953496092       -0.21921353095713
C            2.77187809125771       -1.73355174041828       -1.12904857887954
C            2.38691682321632       -2.94689540465266       -1.68123923049996
C            3.24624395984654       -3.54169547247420       -2.58467642083553
C            4.45371027323292       -2.94478329644101       -2.94594235369672
C            4.82938204050360       -1.72451506917128       -2.42173820668885
C            3.98181609761312       -1.10954678869545       -1.50852340693507
C            4.03989386195047        0.12525777684558       -0.78409248141698
C            4.93987899245473        1.17691405519351       -0.67823000761168
O            6.12671654659748        1.32139117040062       -1.32899411578613
C            6.65293736462186        2.50534482785354       -0.89585023612097
C            7.85690681644340        3.06096898349227       -1.28791501242289
C            8.20757769423311        4.27541186160711       -0.72327824281538
C            7.38227235500920        4.91135378819149        0.20071659397722
C            6.18007803294117        4.35408832505451        0.59151176866402
C            5.80739851529486        3.13475262217275        0.03964319450676
C            4.67716757858903        2.25588373020322        0.18517083802602
C            3.51808945964853        2.28837072879477        0.96410796347722
C            2.61032687733490        1.25605027278493        0.87686950656353
C            2.86518072874207        0.19992189100784        0.00155104340596
N            1.62052425844958       -4.66899366744405        1.21706636056689
C            2.59315147174714       -5.54376451865489        1.39178503194080
H            4.65867426604293       -5.93960625393545        1.83094803879308
H            5.17014020280210       -3.51472551166067        2.15252365909624
H            3.34869030585279       -1.86376813082167        1.85532096494921
H           -0.58518813552927       -3.70039874486443        2.20225554215293
H           -2.50613488069620       -2.16100755313693        1.99050853893483
H           -0.50336369022560        1.90549831303341        1.71047861237569
H           -0.97124102853804        4.29238466643832        2.08660849240276
H           -3.18283999522479        5.23816885536751        1.62025180662363
H           -5.01773519035809        3.79812322552212        0.77616109514645
H           -9.38147895731177        2.76461272606689       -0.69673770793764
H          -11.20824990172176        1.31815399405037       -1.54903238931705
H          -10.83041057707205       -1.06382311557624       -1.97140697907468
H           -8.61962384158083       -2.09009909620721       -1.55853239457201
H           -5.90600595439777       -2.51887796597041       -0.91109001165594
H           -3.55467483584817       -2.28796363591888       -0.18985967075552
H           -0.07508510411819        0.50757730115402       -0.30270089499666
H            1.45199504605251       -3.41426925914881       -1.41226567842489
H            2.97474292021393       -4.49071853974207       -3.02307229104587
H            5.09798790877198       -3.44499276967732       -3.65388180678172
H            5.75552891579529       -1.24911200081200       -2.70780426045979
H            8.49056919322677        2.56220069898925       -2.00430448703171
H            9.14086943197604        4.73831720787729       -1.00660787103313
H            7.69150245735722        5.85831276138591        0.61773032841871
H            5.54237235994373        4.84934329984955        1.30764999998411
H            3.34295049125635        3.11631976222380        1.63288565900564
H            1.71996492110391        1.25293331889102        1.48542533986462
H            2.30923941910802       -6.58118773515619        1.26625123258801
