79
 energy: -131.504110882966 gnorm: 0.000037994464 xtb: 6.7.1 (edcfbbe)
C            4.24747956545713        4.46776982621848       -0.02961225525696
C            3.90071940233721        3.68978793922850        1.06453312922579
C            2.77068379715069        2.89493323902222        0.99200800049130
C            2.02436505608100        2.89730979849070       -0.18723425091575
C            0.81372066611389        2.07159553251962       -0.34815329880493
C           -0.31312407091381        2.63106173197846       -0.94603648879753
C           -1.48304649900727        1.91370045354373       -1.08722105711029
C           -1.55037118776936        0.59881508632074       -0.63064292303090
N           -2.72952242739027       -0.14471755740801       -0.77128963195839
C           -2.82582530278378       -1.39768505751136       -1.34809785045981
C           -1.84207078246779       -2.18874343763340       -1.92509038668992
C           -2.22404858928885       -3.40383356722321       -2.46155551369257
C           -3.55176788129428       -3.82796710613725       -2.43713290530616
C           -4.53987247497997       -3.03693321102220       -1.88623343553497
C           -4.17756832240494       -1.81127583864011       -1.34161342768188
C           -4.91845624688616       -0.75083710751124       -0.72565650078793
C           -6.25028116883237       -0.52762300917200       -0.40503835258139
O           -7.30884362438191       -1.35143073275414       -0.63738877497392
C           -8.40629713847146       -0.70235590111724       -0.14779591860596
C           -9.70945672084763       -1.16416169182698       -0.16770643637228
C          -10.67986915322642       -0.34595637777417        0.38492341037763
C          -10.35700238893347        0.89054502102281        0.93815146815409
C           -9.05432856487212        1.35027854865938        0.95642079478520
C           -8.06273954731447        0.54675942057281        0.40743444652903
C           -6.63813156048542        0.66116225728169        0.23838542046484
C           -5.69463245418993        1.63300281688163        0.57994944381968
C           -4.36679018277420        1.43544283378559        0.27000933801730
C           -3.99160412765440        0.26412227028096       -0.39020333984831
C           -0.42628550083948        0.01592486136550       -0.05693077427126
C            0.75212420921262        0.73834359309628        0.07727929282873
N            1.87854478932947        0.09662008185420        0.62118427542845
C            1.94395519999048       -0.48929093212104        1.86946062188942
C            0.97108648301440       -0.58233036546336        2.85487933832969
C            1.31349165695798       -1.20760608743774        4.03886747705722
C            2.59189181037761       -1.72373935646875        4.24781089897083
C            3.56960170271620       -1.61915080094799        3.27859516720598
C            3.24767343508196       -0.99444407438987        2.07997489057824
C            3.98766702799182       -0.69834631116000        0.88915345180758
C            5.28160807659605       -0.92342328586918        0.43996704054499
O            6.29359822255308       -1.54692522802086        1.10368622419233
C            7.36588209922236       -1.53053293881017        0.25758131219157
C            8.61856664113612       -2.05867231234673        0.51002734459618
C            9.57014728478226       -1.93673553037246       -0.48813519864296
C            9.27800000059549       -1.30769712262451       -1.69574018222647
C            8.02531863269438       -0.78148437123909       -1.94601334491783
C            7.05301408119480       -0.89308835330648       -0.95984536784669
C            5.67540715722375       -0.49415467455468       -0.83982051477557
C            4.77483203601252        0.15114170324519       -1.69110076842772
C            3.48397072883191        0.38265317416487       -1.27083497165646
C            3.10833046773149       -0.02314099320499        0.01036554521515
N            2.34264591861179        3.67191919125683       -1.22235635810204
C            3.42059379883858        4.42883473695075       -1.14205063665114
H            5.12595046518678        5.09343387483139       -0.01667817065940
H            4.50030825515660        3.70282309170307        1.96332609622135
H            2.46403876538660        2.29925220288551        1.83775390535760
H           -0.25093517488177        3.64855298458499       -1.29916704350211
H           -2.34281338858948        2.35851643412327       -1.56353875716145
H           -0.81318362369812       -1.86550064536764       -1.96767727043657
H           -1.47576890095888       -4.03832588628464       -2.91349145399962
H           -3.80771009127240       -4.78601676215989       -2.86508078708022
H           -5.57308396642597       -3.34978256346579       -1.87755975326682
H           -9.95090146486037       -2.12346687239929       -0.59786107434777
H          -11.70822662602452       -0.67481273427674        0.38661287202858
H          -11.14311157210653        1.49931942623432        1.35981615536129
H           -8.80772868536703        2.30945485409952        1.38539855138655
H           -6.00975900776025        2.53084605169310        1.08811146905662
H           -3.62580923740778        2.17081987600416        0.54160441278621
H           -0.46230332216979       -1.00714618038399        0.28567017460750
H           -0.01774809643072       -0.17551068729972        2.70528706859455
H            0.57431789180504       -1.29654078878428        4.82139519462281
H            2.81822860624500       -2.20651598274084        5.18704754593385
H            4.56451888490418       -2.00680078568082        3.43766725619254
H            8.83637930393291       -2.54418301264425        1.44832278132665
H           10.55890920983486       -2.33864561611802       -0.32566330133692
H           10.04793791455483       -1.23228191714085       -2.44927796699682
H            7.80134161298664       -0.29564413352200       -2.88337043774451
H            5.09200894469264        0.45879274904116       -2.67515042335918
H            2.77385955774537        0.87123433526455       -1.91961627102788
H            3.62830371568427        5.03068690413690       -2.01799923932736
