60
 energy: -91.791122853782 gnorm: 0.000043994568 xtb: 6.7.1 (edcfbbe)
C           -2.19899469699362       -3.24188256949757        1.78706283129630
C           -0.86844093366442       -3.04165171271998        1.46837656496703
C           -0.48173213068602       -1.93392716335219        0.71633864445956
C            0.93088621041661       -1.69747764720313        0.38933110455698
C            1.78398840805782       -2.75198915675610        0.05459594731471
C            3.10650113340707       -2.50976205191434       -0.21868488235878
C            3.65145327149400       -1.21786032759010       -0.18258336747076
C            5.06161122858355       -0.97482624414604       -0.42020405721945
C            5.95074439205621       -2.02290428928886       -0.69811775817875
C            7.29471835551851       -1.80468008030726       -0.88268523895097
C            7.80052760562530       -0.51470629017415       -0.78662372752706
C            6.94914013597377        0.53180400577501       -0.52475102177719
C            5.57184789025213        0.33987663541539       -0.34713219457340
C            4.67357580687071        1.45503792309086       -0.10416813402764
C            5.13126648801466        2.78033062412558       -0.10488168117941
C            4.28329668629526        3.84142203542778        0.10395658219072
C            2.93026018341117        3.60912724161552        0.31367348987869
C            2.45483675584659        2.31981586580962        0.31741156976817
C            3.30019129219435        1.21891679866558        0.11997076763950
C            2.79063481235026       -0.14107819402548        0.12031637557486
C            1.45119410183654       -0.41676627708006        0.41370104950898
C           -1.45834426927037       -1.04322767847667        0.28391489135445
C           -2.79306597509465       -1.23544348798182        0.61770291769871
N           -3.75232724210425       -0.30288805848317        0.19932823605359
C           -4.94295479001283       -0.58551541363366       -0.43905802165386
C           -5.45527616662283       -1.80601992016592       -0.85511028589225
C           -6.67566765794134       -1.80613123135086       -1.50277585608839
C           -7.37242327428923       -0.62378761656845       -1.74300460885728
C           -6.85635412406303        0.59576246601081       -1.35340503475116
C           -5.63119148699528        0.62189199880003       -0.70026396317436
C           -4.80851244216929        1.68040677141607       -0.18560450898274
C           -4.95025540080004        3.06078412295752       -0.12994527408075
C           -3.95491030842708        3.80484516149262        0.47098980434122
C           -2.83717050165896        3.18790206564490        1.02872902356349
C           -2.67446311405692        1.81670066613813        0.98663472279815
C           -3.65796666579510        1.06525180366320        0.35904940348948
C           -3.16526990286166       -2.34210567555283        1.37509528850191
H           -2.48639074078306       -4.09968231595104        2.37719247327209
H           -0.12014077298603       -3.73421696931893        1.82316065382707
H            1.39736639470812       -3.75882072966711       -0.00187290615068
H            3.72972476304670       -3.35336823531127       -0.46655061364420
H            5.58910722787929       -3.03559739397308       -0.76990280490129
H            7.95412446305743       -2.63325832018516       -1.09509600644192
H            8.85710394828431       -0.33349745540318       -0.91799504182797
H            7.37234090491943        1.52032313210291       -0.45303196489882
H            6.17262699620620        2.99422653147326       -0.28129171688113
H            4.66721985750240        4.85088189828438        0.09660143942498
H            2.25322400063298        4.43643202877027        0.46720560059718
H            1.39740171995952        2.17392272815634        0.46669741012545
H            0.79028132950491        0.38456013852538        0.70029248483043
H           -1.18761194752596       -0.20650211915180       -0.34281727316922
H           -4.91464316175471       -2.72584126023416       -0.68986793104836
H           -7.09743823214110       -2.74391551542013       -1.83352812480225
H           -8.32507132863366       -0.66661219957762       -2.24977244788525
H           -7.38845176309021        1.51361612388440       -1.55357563586904
H           -5.82533417607604        3.53723387670684       -0.54563531285814
H           -4.04436315864156        4.87982492746890        0.52196401082244
H           -2.08378458647725        3.79488951993460        1.50938809333656
H           -1.81732697563996        1.34536497372643        1.44406819263276
H           -4.20003742457100       -2.48086942793442        1.64903994816467
