  80
       -123.06156032
 C          8.4231113621        2.6761312532        1.5903814205
 C          8.7449084215        1.9248895488        0.4715162903
 C          7.8379313936        1.0230395948       -0.0493520677
 C          6.5887855816        0.8584570293        0.5509363811
 N          5.6708265736       -0.0601841675        0.0324804014
 C          6.1283669198       -1.2798837199       -0.4719018721
 C          7.1908195378       -1.9447768180        0.1426759957
 C          7.6408278556       -3.1487912699       -0.3611432410
 C          7.0399314575       -3.7114594377       -1.4763887243
 C          5.9828216715       -3.0571306257       -2.0881696460
 C          5.5285435385       -1.8490498051       -1.5969069987
 C          4.3113966519        0.2423114050        0.0084260684
 C          3.8735125883        1.5485868233       -0.1852594574
 C          2.5117214064        1.8152275861       -0.2007424493
 C          1.5562174614        0.8161200705       -0.0187652902
 C          1.9901752158       -0.5510521327        0.1882155305
 C          3.3725977094       -0.7858849618        0.1945235422
 C          1.1126149370       -1.6484522697        0.3913733207
 C         -0.2764463479       -1.4195495454        0.3733531452
 C         -1.5365854186       -2.0782436315        0.5396413865
 C         -1.8872014886       -3.3959276843        0.8156955231
 C         -3.2230929018       -3.7310861160        0.9019218632
 C         -4.2216661050       -2.7929309367        0.6565080997
 C         -3.9167891429       -1.4662076106        0.3526733418
 N         -4.9516454469       -0.5861401081       -0.0253952028
 C         -4.8712103443        0.0824776666       -1.2445718698
 C         -3.9962997560       -0.3551592579       -2.2409388181
 C         -3.8775491750        0.3458436151       -3.4243286684
 C         -4.6329022263        1.4843620158       -3.6489043845
 C         -5.5166685544        1.9151979925       -2.6731195002
 C         -5.6364356206        1.2287192639       -1.4825155055
 C         -6.1215691690       -0.5981744602        0.7403938811
 C         -7.3859720816       -0.6048272424        0.1513784884
 C         -8.5183482385       -0.6186466580        0.9423109951
 C         -8.4114050696       -0.6360743201        2.3235983220
 C         -7.1573148029       -0.6467219674        2.9129610982
 C         -6.0190779791       -0.6274401038        2.1319457607
 C         -2.5772978624       -1.0819567226        0.3756785138
 N         -1.9600553751        0.1382372006        0.1892413130
 C         -2.1192392919        1.5253703421        0.1190164118
 C         -3.2375047556        2.3037321076        0.2858146870
 C         -3.1047995725        3.6878843077        0.1756614050
 C         -1.8692482783        4.2672535877       -0.0672978573
 C         -0.7218941436        3.4978244497       -0.1659008237
 C         -0.8155333463        2.1124244511       -0.0546073754
 C          0.1532759199        1.0556369590       -0.0120980962
 C         -0.6227414479       -0.0953478029        0.1589583581
 C          6.2696790203        1.6164792221        1.6781064206
 C          7.1828112740        2.5177043617        2.1885335425
 H          9.1342700045        3.3807684742        1.9936019819
 H          9.7067528294        2.0469292848       -0.0040563779
 H          8.0845717091        0.4467377133       -0.9290840185
 H          7.6498462419       -1.5147315968        1.0207682615
 H          8.4600725234       -3.6566048833        0.1259345653
 H          7.3945952682       -4.6533683153       -1.8660392547
 H          5.5124254834       -3.4869162418       -2.9598219385
 H          4.7141524824       -1.3318789310       -2.0818665398
 H          4.5867676760        2.3429813283       -0.3430339766
 H          2.1790567390        2.8260931556       -0.3763589885
 H          3.7282072491       -1.7880614683        0.3856105563
 H          1.5296153008       -2.6303500238        0.5485646688
 H         -1.1176514304       -4.1395375262        0.9549647529
 H         -3.5093650099       -4.7492289667        1.1200520997
 H         -5.2577975324       -3.0964126748        0.6610485813
 H         -3.4154600521       -1.2524083311       -2.0883915157
 H         -3.1923912133       -0.0071320662       -4.1809493474
 H         -4.5358570344        2.0296209501       -4.5751380453
 H         -6.1116776580        2.8018952971       -2.8351121095
 H         -6.3144333445        1.5890928958       -0.7225263899
 H         -7.4728994409       -0.6157916290       -0.9252071898
 H         -9.4923013739       -0.6273527419        0.4753661381
 H         -9.2997886396       -0.6471558406        2.9365356938
 H         -7.0650984315       -0.6633587174        3.9888344350
 H         -5.0400497853       -0.6313217264        2.5885761128
 H         -4.1940293917        1.8701347559        0.5227033551
 H         -3.9786875843        4.3106015625        0.2909148438
 H         -1.7960046963        5.3415413717       -0.1555326914
 H          0.2362779693        3.9715474442       -0.3135671919
 H          5.3077521451        1.4837043711        2.1504805628
 H          6.9274271897        3.0950470724        3.0646116600
