  66
  -109.714035046200       0.210683719291338      !
 C         -6.7050226180        1.2917278773        2.0440554788
 C         -5.3623344544        1.1211032485        1.3345573737
 C         -4.2640311372        1.0064777109        2.4112554339
 C         -5.0374984616        2.2876948805        0.4171236793
 C         -5.7102039372        3.4996847088        0.4185288314
 C         -5.3599471250        4.5079002588       -0.4641263275
 C         -4.3482035924        4.3077919985       -1.3861391498
 C         -3.6709575492        3.1028562757       -1.4116513397
 C         -3.9925357496        2.1103523084       -0.4948057876
 N         -3.3506683592        0.8529813374       -0.5255057828
 C         -1.9931651179        0.6901580527       -0.4097921174
 C         -1.1272542400        1.7985540031       -0.3339969206
 C          0.2237125180        1.6131700292       -0.2264097196
 C          0.7874051629        0.3313755012       -0.1753770829
 C         -0.0653810861       -0.7933550595       -0.1808069282
 C         -1.4351213970       -0.5857393583       -0.2823764748
 C          0.5066379257       -2.1316582383       -0.0822690560
 C         -0.2811849137       -3.2839808594       -0.0801395920
 C          0.2923344332       -4.5459642497        0.0065112895
 C         -0.5461577506       -5.6842428393        0.0035284942
 N         -1.2335876233       -6.6022146887       -0.0012125746
 C          1.6817104843       -4.6968893023        0.0934990757
 C          2.4701876853       -3.5732971197        0.0916111499
 C          1.9048236462       -2.2959313771        0.0047590437
 C          2.7752661180       -1.1404834607        0.0024007282
 N          4.0752851699       -1.3248969802        0.0829232186
 C          4.8679994801       -0.2408526324        0.0811935874
 C          6.2633383294       -0.4014713674        0.1639988780
 C          7.0809941993        0.7044964125        0.1633228401
 C          8.4847468519        0.5548806263        0.2444960349
 N          9.6212177708        0.4202626386        0.3102502402
 C          6.5216199417        2.0156578808        0.0793586839
 C          7.3854926931        3.1361535430        0.0801405774
 N          8.0744887164        4.0519553846        0.0799865935
 C          5.1612046365        2.1911086335       -0.0015188537
 C          4.3067779212        1.0695415945       -0.0033446188
 N          2.9827287313        1.2481088835       -0.0862182089
 C          2.2091673909        0.1748224808       -0.0863784009
 C         -4.2718976078       -0.2152872393       -0.4602903164
 C         -4.1956837293       -1.2838722042       -1.3450882071
 C         -5.1325154235       -2.2983651503       -1.2814371361
 C         -6.1576124131       -2.2287543457       -0.3549011738
 C         -6.2601744262       -1.1384521690        0.4928757321
 C         -5.3243082377       -0.1164692703        0.4544867549
 H         -6.6880716262        2.1808651091        2.6692124408
 H         -7.5183796439        1.3769069616        1.3269907340
 H         -6.8944214720        0.4431595305        2.6965588743
 H         -4.4630119663        0.1489205912        3.0506511556
 H         -4.2550879095        1.9046574741        3.0251012339
 H         -3.2773288265        0.8836046662        1.9733425139
 H         -6.5181042399        3.6731036682        1.1104341653
 H         -5.8921632873        5.4464856669       -0.4403687161
 H         -4.0939606619        5.0812967288       -2.0944713839
 H         -2.9071562652        2.9198892604       -2.1527059943
 H         -1.5285774218        2.7988404916       -0.3341171338
 H          0.8913572973        2.4585509768       -0.1736105924
 H         -2.1039881152       -1.4266910755       -0.2392967181
 H         -1.3561003460       -3.2234642905       -0.1457602244
 H          2.1126450043       -5.6843690731        0.1589565406
 H          3.5446880571       -3.6459301228        0.1554733054
 H          6.6723090671       -1.3986110417        0.2264997624
 H          4.7267587126        3.1771922267       -0.0653746919
 H         -3.4150576913       -1.3059833934       -2.0912874241
 H         -5.0677441155       -3.1329424408       -1.9627463796
 H         -6.8914138431       -3.0182029877       -0.3011051916
 H         -7.0826066790       -1.0974664823        1.1880635687
  66
  -109.713984101700       0.199626643834849      !
 C         -7.2786642333        0.0815430656        0.5638694301
 C         -6.2352688159        1.2047527628        0.4219185679
 C         -6.9323650952        2.5757187399        0.3519827868
 C         -5.4602883674        0.9951635335       -0.8637016256
 C         -6.1427361158        0.9944139404       -2.0732905574
 C         -5.4924662849        0.8570597359       -3.2846966930
 C         -4.1141993695        0.7449503754       -3.2999819370
 C         -3.4124407659        0.7418152844       -2.1130832645
 C         -4.0711361749        0.8351891665       -0.8831288774
 N         -3.3392363535        0.8142418395        0.3003437398
 C         -1.9399765115        0.6426596105        0.2436081954
 C         -1.0866162234        1.6774190986        0.6394024902
 C          0.2721763175        1.4953643975        0.5739035974
 C          0.8150547836        0.2891999041        0.1158394101
 C         -0.0330583076       -0.7621904764       -0.2905497599
 C         -1.4107373598       -0.5556696397       -0.2105289052
 C          0.5395538696       -2.0140616588       -0.7695689319
 C         -0.2528106841       -3.0783884400       -1.2039917978
 C          0.3201665128       -4.2607063312       -1.6535959492
 C         -0.5180351748       -5.3149339082       -2.0860151255
 N         -1.2017378355       -6.1660832126       -2.4354707990
 C          1.7114978355       -4.4168427385       -1.6835503679
 C          2.5042495235       -3.3771250060       -1.2653338869
 C          1.9397294852       -2.1793737516       -0.8118796343
 C          2.8104255779       -1.1042184565       -0.3917661808
 N          4.1142693779       -1.2845245293       -0.4408751666
 C          4.9070962616       -0.2733567914       -0.0568997702
 C          6.3060505717       -0.4319612509       -0.0983295722
 C          7.1220797977        0.6040892243        0.2886680625
 C          8.5290478141        0.4579577707        0.2508780395
 N          9.6667410943        0.3277242262        0.2174662298
 C          6.5616615418        1.8407377091        0.7327101088
 C          7.4282703046        2.8905914735        1.1202859452
 N          8.1201367617        3.7471467480        1.4369173870
 C          5.1994832389        2.0125180315        0.7826185135
 C          4.3461241535        0.9610813383        0.3908525070
 N          3.0186936808        1.1317711707        0.4439789949
 C          2.2468159019        0.1306421549        0.0641400045
 C         -3.9527573531        0.9654491976        1.5401949388
 C         -3.1932171719        0.8576473707        2.7091440061
 C         -3.7708068981        1.0164064239        3.9510108136
 C         -5.1260149367        1.2730522558        4.0522166355
 C         -5.8872308594        1.3359995281        2.9007416964
 C         -5.3313263786        1.1766232324        1.6380344429
 H         -7.8735396706        0.2150384546        1.4627032719
 H         -7.9513706185        0.0665220201       -0.2887221188
 H         -6.7786946722       -0.8833825413        0.6236414061
 H         -6.1895817547        3.3635461620        0.2417925467
 H         -7.5033155660        2.7667425907        1.2561117820
 H         -7.6105383437        2.6237455539       -0.4950582266
 H         -7.2158318835        1.1084146699       -2.0751191514
 H         -6.0545661688        0.8543240398       -4.2055891405
 H         -3.5801102172        0.6654484931       -4.2347550568
 H         -2.3356150862        0.6785763177       -2.1431409945
 H         -1.5072309139        2.6085504186        0.9879319851
 H          0.9544563831        2.2781104815        0.8657984636
 H         -2.1059535392       -1.3281328226       -0.4977122866
 H         -1.3288391601       -3.0064434815       -1.2032603624
 H          2.1409238377       -5.3429920690       -2.0341678012
 H          3.5801664293       -3.4562011291       -1.2770546034
 H          6.7158395567       -1.3713855909       -0.4373464257
 H          4.7632520541        2.9418707213        1.1163061867
 H         -2.1387259980        0.6372098260        2.6462685489
 H         -3.1600571835        0.9337480269        4.8372046788
 H         -5.5895331192        1.4069408355        5.0172127592
 H         -6.9479809815        1.5116901328        2.9933819350
  66
  -109.713902717600       0.183154233944378      !
 C         -6.7999614510        1.3565083752        1.9474458513
 C         -5.4291416107        1.1620561732        1.3005008498
 C         -4.3778141919        1.0686830108        2.4248206779
 C         -5.0594614736        2.3055175425        0.3710842223
 C         -5.7237585202        3.5210188554        0.3160686619
 C         -5.3286535276        4.5073984410       -0.5722323733
 C         -4.2778198672        4.2818015608       -1.4433832263
 C         -3.6085038431        3.0728260837       -1.4128732791
 C         -3.9775309838        2.1018951444       -0.4904937033
 N         -3.3454241294        0.8397839851       -0.4700161653
 C         -1.9906535526        0.6737782314       -0.3307721562
 C         -1.1297348529        1.7833523102       -0.2177262661
 C          0.2210532857        1.6012161376       -0.1054303776
 C          0.7898158954        0.3206700471       -0.0884338440
 C         -0.0590051358       -0.8066312314       -0.1172076214
 C         -1.4295674099       -0.6020546521       -0.2175705749
 C          0.5189216379       -2.1446389702       -0.0541292770
 C         -0.2646600848       -3.2998905078       -0.0630515002
 C          0.3148491194       -4.5613318162       -0.0193906352
 C         -0.5190957492       -5.7027687551       -0.0375748139
 N         -1.2025739222       -6.6234731979       -0.0561122648
 C          1.7062063977       -4.7089324535        0.0353235050
 C          2.4904760786       -3.5825009276        0.0472413758
 C          1.9191106430       -2.3056172704        0.0031296559
 C          2.7856644452       -1.1473081083        0.0122799423
 N          4.0881419572       -1.3286853421        0.0483317113
 C          4.8767970803       -0.2416938870        0.0601828723
 C          6.2747799015       -0.3987135259        0.0860993235
 C          7.0880884522        0.7103490552        0.1024628506
 C          8.4943568087        0.5647244006        0.1221808554
 N          9.6331391178        0.4343576730        0.1334973416
 C          6.5214665529        2.0210945446        0.0979424686
 C          7.3807989219        3.1448446179        0.1184645013
 N          8.0659501290        4.0633309391        0.1380725055
 C          5.1585417778        2.1930693517        0.0713511832
 C          4.3085789291        1.0683798052        0.0467950854
 N          2.9822257367        1.2438349518        0.0038200710
 C          2.2129846796        0.1676735299       -0.0204407622
 C         -4.2769159110       -0.2202675309       -0.4218732218
 C         -4.1813982266       -1.3042407119       -1.2860909781
 C         -5.1254791969       -2.3128486923       -1.2334962488
 C         -6.1785388805       -2.2215716362       -0.3410057485
 C         -6.3036486185       -1.1128937721        0.4794834779
 C         -5.3615527441       -0.0962293436        0.4519700095
 H         -7.5813586219        1.4266260659        1.1940370358
 H         -7.0219082130        0.5261556611        2.6129673252
 H         -6.8049254013        2.2615331456        2.5496059455
 H         -3.3747900106        0.9295841690        2.0309272252
 H         -4.6086563411        0.2285211901        3.0764628284
 H         -4.3888089925        1.9820277279        3.0158559351
 H         -6.5596613575        3.7147675952        0.9681186850
 H         -5.8545421784        5.4496317443       -0.5919256665
 H         -3.9863569908        5.0385468490       -2.1554606978
 H         -2.8124752276        2.8696990680       -2.1137241675
 H         -1.5359939014        2.7815430621       -0.1955324941
 H          0.8847733507        2.4475999546       -0.0262718626
 H         -2.0949279464       -1.4462844525       -0.1919560650
 H         -1.3409307233       -3.2421329781       -0.1041194570
 H          2.1417535484       -5.6960486835        0.0670540464
 H          3.5661927803       -3.6524018636        0.0890631497
 H          6.6891193510       -1.3955410184        0.0916082001
 H          4.7186797522        3.1787892851        0.0645843493
 H         -3.3820097493       -1.3426562629       -2.0114052806
 H         -5.0445027388       -3.1592285562       -1.8983670359
 H         -6.9175114813       -3.0066524141       -0.2949971784
 H         -7.1494032785       -1.0530594490        1.1446443688
  66
  -109.713760310100       0.157532805335401      !
 C         -6.5452666506        1.5097276005        2.1933509574
 C         -5.2535596149        1.2602683715        1.4157305898
 C         -4.0869827906        1.2306914056        2.4242474751
 C         -4.9829921297        2.3379436569        0.3796872769
 C         -5.6438679690        3.5549525026        0.3171534466
 C         -5.3377368718        4.4796904853       -0.6674291506
 C         -4.3806632219        4.1909256144       -1.6239706056
 C         -3.7172154411        2.9788755214       -1.5865134079
 C         -3.9986025692        2.0691825144       -0.5754123083
 N         -3.3738762085        0.8032864929       -0.5450479282
 C         -2.0126750321        0.6395067496       -0.4813362211
 C         -1.1491369116        1.7526432257       -0.4700049399
 C          0.2039656673        1.5771618483       -0.3764372255
 C          0.7743965169        0.2998581168       -0.2952674665
 C         -0.0717051378       -0.8295137044       -0.2798597838
 C         -1.4452867530       -0.6309351120       -0.3459343936
 C          0.5107105587       -2.1643841912       -0.1992626872
 C         -0.2654094319       -3.3232614068       -0.2549151415
 C          0.3179643770       -4.5819988776       -0.1896832362
 C         -0.5080439702       -5.7271640195       -0.2603354554
 N         -1.1847302920       -6.6510178502       -0.3204768783
 C          1.7053545286       -4.7226547508       -0.0630754263
 C          2.4828152635       -3.5924506941       -0.0133100544
 C          1.9080117075       -2.3184037173       -0.0848775143
 C          2.7677326014       -1.1554648092       -0.0513696681
 N          4.0642487445       -1.3279103894        0.0894371981
 C          4.8473603775       -0.2370774773        0.1124421163
 C          6.2373227341       -0.3838617963        0.2740191067
 C          7.0448346450        0.7292437435        0.3002481494
 C          8.4423302382        0.5939738510        0.4670953408
 N          9.5734800408        0.4711631502        0.6063832738
 C          6.4807547288        2.0336448560        0.1612394582
 C          7.3338267093        3.1618842533        0.1935566651
 N          8.0127589855        4.0850249199        0.2155383238
 C          5.1257121660        2.1955439714        0.0012974998
 C          4.2811463164        1.0668182554       -0.0236236850
 N          2.9606505953        1.2331728601       -0.1669969227
 C          2.1952658387        0.1541320015       -0.1771411345
 C         -4.2992862650       -0.2415753817       -0.3280481696
 C         -4.2996640714       -1.3806632654       -1.1234611400
 C         -5.2329375374       -2.3762536898       -0.9006809579
 C         -6.1809712736       -2.2179421952        0.0942662490
 C         -6.2147173562       -1.0565045446        0.8479437980
 C         -5.2810161591       -0.0512169450        0.6493874619
 H         -6.6951347859        0.7272705134        2.9329488605
 H         -6.4821358228        2.4524859808        2.7309004945
 H         -7.4040964863        1.5376182207        1.5265347386
 H         -3.1324319533        1.0541150535        1.9362918917
 H         -4.2494844420        0.4388816958        3.1525262624
 H         -4.0304073435        2.1817052608        2.9496461799
 H         -6.4071164504        3.7980497676        1.0381573312
 H         -5.8599830821        5.4238190548       -0.6932979393
 H         -4.1589161382        4.9004317817       -2.4063393851
 H         -2.9929527587        2.7254518111       -2.3464676484
 H         -1.5558463098        2.7505730368       -0.4988132806
 H          0.8676813866        2.4269360813       -0.3536534773
 H         -2.1064012933       -1.4745747720       -0.2611902498
 H         -1.3377884292       -3.2701722716       -0.3574784315
 H          2.1438259160       -5.7076656225       -0.0120204095
 H          3.5558559746       -3.6573407598        0.0770413278
 H          6.6498995953       -1.3760222080        0.3776809515
 H          4.6875741635        3.1764971060       -0.1031983997
 H         -3.5844738662       -1.4728650205       -1.9276406142
 H         -5.2253526659       -3.2662044961       -1.5113500217
 H         -6.9099593113       -2.9930313770        0.2743199770
 H         -6.9814746444       -0.9465756363        1.5972124502
  66
  -109.713533513900       0.123920366730360      !
 C         -7.3514083502        0.3154962078        0.6121112581
 C         -6.2127089176        1.3384504345        0.4477309351
 C         -6.7840524419        2.7663081278        0.3727910100
 C         -5.4738185053        1.0509803307       -0.8444925594
 C         -6.1746789668        1.0769482788       -2.0432500268
 C         -5.5559407996        0.8750488917       -3.2620896019
 C         -4.1891272344        0.6682418595       -3.2966635290
 C         -3.4689016612        0.6396487704       -2.1210977271
 C         -4.0980572411        0.8007052406       -0.8828889907
 N         -3.3509671791        0.7548896027        0.2906788352
 C         -1.9520368616        0.5857929381        0.2230540286
 C         -1.1059303895        1.6272708961        0.6179051324
 C          0.2537114364        1.4565735195        0.5520816505
 C          0.8053816900        0.2545284076        0.0935310404
 C         -0.0343492058       -0.8030821341       -0.3135312609
 C         -1.4142662174       -0.6085706833       -0.2314386364
 C          0.5496993130       -2.0491191755       -0.7945274108
 C         -0.2328854428       -3.1198761927       -1.2310046995
 C          0.3507782263       -4.2957122187       -1.6838934732
 C         -0.4773024878       -5.3575061057       -2.1173724292
 N         -1.1502771786       -6.2162588785       -2.4695782448
 C          1.7435048237       -4.4387763434       -1.7156217562
 C          2.5267871924       -3.3929157838       -1.2949779266
 C          1.9515020677       -2.2018016234       -0.8376103230
 C          2.8131277297       -1.1214393958       -0.4121648106
 N          4.1186283785       -1.2910932879       -0.4575757825
 C          4.9018430905       -0.2764744633       -0.0628944360
 C          6.3022488574       -0.4238646861       -0.0978033879
 C          7.1080128708        0.6140424776        0.3054799491
 C          8.5163355822        0.4794632612        0.2745855841
 N          9.6554894775        0.3577997523        0.2501672930
 C          6.5357459086        1.8416769598        0.7595508489
 C          7.3916888643        2.8924829360        1.1677062099
 N          8.0741302369        3.7507854005        1.4992097919
 C          5.1721478479        2.0034093608        0.8009602646
 C          4.3292674836        0.9499696146        0.3922075720
 N          3.0005118345        1.1110230760        0.4378564042
 C          2.2382327232        0.1067471328        0.0470235365
 C         -3.9409504681        0.9391000982        1.5376048411
 C         -3.1758094998        0.7718952080        2.6960211125
 C         -3.7252272033        0.9640281764        3.9458795674
 C         -5.0576929964        1.3154882559        4.0651729430
 C         -5.8277458677        1.4353895720        2.9240891637
 C         -5.3006703531        1.2409673973        1.6538478724
 H         -8.0348337215        0.3553857242       -0.2310396897
 H         -6.9396818835       -0.6902223221        0.6734940220
 H         -7.9201583705        0.5087381479        1.5169759353
 H         -5.9747804447        3.4832355505        0.2464899132
 H         -7.3235252768        3.0149646708        1.2824569225
 H         -7.4653736644        2.8678476479       -0.4672322987
 H         -7.2368144558        1.2672975877       -2.0307137533
 H         -6.1322905836        0.8961079783       -4.1738620471
 H         -3.6776948339        0.5348704398       -4.2379443690
 H         -2.3995545007        0.5036774263       -2.1680825793
 H         -1.5343138185        2.5539165870        0.9689334336
 H          0.9300413211        2.2442337500        0.8443792010
 H         -2.1026984912       -1.3891732490       -0.5130377427
 H         -1.3095820753       -3.0581004386       -1.2291493879
 H          2.1812885808       -5.3599026103       -2.0691653027
 H          3.6033951866       -3.4618777418       -1.3073743061
 H          6.7212922848       -1.3565019008       -0.4441938713
 H          4.7266649542        2.9257721232        1.1417664253
 H         -2.1399996435        0.4790566016        2.6171928004
 H         -3.1109923299        0.8339232752        4.8239199924
 H         -5.4979036189        1.4791408702        5.0364996108
 H         -6.8715503868        1.6878155724        3.0310083406
  66
  -109.713362573800       0.103415124536187      !
 C         -7.1044288945       -0.2659628601        0.6251276975
 C         -6.2438205748        0.9962892914        0.4317380774
 C         -7.1402015353        2.2440321862        0.3359395650
 C         -5.4655124043        0.8608885183       -0.8612988194
 C         -6.1538951459        0.7641873170       -2.0637069099
 C         -5.5017562133        0.6803852047       -3.2790844072
 C         -4.1194586019        0.7214779349       -3.3069774366
 C         -3.4120088863        0.8106161804       -2.1269556107
 C         -4.0680910954        0.8475218919       -0.8923990602
 N         -3.3239230822        0.9178002156        0.2812886041
 C         -1.9250863265        0.7491812035        0.2097135418
 C         -1.0589732814        1.7896473306        0.5596644741
 C          0.2979969793        1.5907957671        0.4911083959
 C          0.8261719071        0.3642607697        0.0718953280
 C         -0.0358249792       -0.6881549437       -0.3020760321
 C         -1.4098514700       -0.4655261563       -0.2167336548
 C          0.5186733526       -1.9587055808       -0.7515586766
 C         -0.2890205764       -3.0220712352       -1.1590469701
 C          0.2670147723       -4.2223215114       -1.5813459688
 C         -0.5867905782       -5.2756280766       -1.9844237275
 N         -1.2822460645       -6.1258690658       -2.3125410287
 C          1.6561329293       -4.3974572874       -1.6110515619
 C          2.4637420869       -3.3588247646       -1.2193291776
 C          1.9161708662       -2.1435439610       -0.7924337835
 C          2.8013069250       -1.0715896481       -0.3949113548
 N          4.1021071793       -1.2742332339       -0.4332412291
 C          4.9095840749       -0.2694608484       -0.0633926238
 C          6.3056103872       -0.4539455659       -0.0906294634
 C          7.1370740013        0.5724903215        0.2890389993
 C          8.5413370603        0.3996454806        0.2658745193
 N          9.6767047690        0.2468697505        0.2450285721
 C          6.5952353647        1.8251411347        0.7105918445
 C          7.4775849259        2.8626226366        1.0960378993
 N          8.1824863875        3.7088008195        1.4118886864
 C          5.2360276159        2.0233186149        0.7429903081
 C          4.3669220725        0.9822510909        0.3581099673
 N          3.0421599311        1.1776402323        0.3956077868
 C          2.2556400756        0.1825278613        0.0300258588
 C         -3.9345368027        1.0686977451        1.5233460755
 C         -3.1575991373        1.1073873915        2.6849411812
 C         -3.7374254931        1.2674117921        3.9257420696
 C         -5.1116318691        1.3763961410        4.0349380887
 C         -5.8854399654        1.2959248805        2.8930907789
 C         -5.3273520153        1.1371226165        1.6311813648
 H         -7.6964924384       -0.1963032712        1.5332522444
 H         -7.7802916811       -0.4053229577       -0.2139693204
 H         -6.4646120731       -1.1434871879        0.6998219171
 H         -6.5257815986        3.1310487114        0.1937734868
 H         -7.7250072118        2.3732697575        1.2419216497
 H         -7.8279205439        2.1657416770       -0.5009658743
 H         -7.2329732063        0.7537317531       -2.0563230770
 H         -6.0675470065        0.6001956482       -4.1941984652
 H         -3.5881663667        0.6892100591       -4.2461114184
 H         -2.3345603704        0.8633888616       -2.1633841098
 H         -1.4664595498        2.7384621707        0.8745002442
 H          0.9899156392        2.3758681092        0.7527793183
 H         -2.1150195309       -1.2381770741       -0.4779688915
 H         -1.3639468588       -2.9353500343       -1.1584857019
 H          2.0722934663       -5.3373044323       -1.9406021936
 H          3.5384591105       -3.4525408100       -1.2314898412
 H          6.7008285356       -1.4057982540       -0.4118273016
 H          4.8142462876        2.9653004200        1.0593770948
 H         -2.0860783873        0.9998077671        2.6199926116
 H         -3.1124322642        1.3000906854        4.8052402650
 H         -5.5782929415        1.5056098710        4.9990560730
 H         -6.9584400173        1.3520405361        2.9935141347
  66
  -109.711606308300       1.612353701993287E-002 !
 C         -7.2335898826        0.0174282156        0.0532181584
 C         -6.2399708449        1.1342658664        0.4215247901
 C         -6.9995786582        2.3963790885        0.8682761298
 C         -5.4143520244        1.4735175683       -0.8051178093
 C         -6.0461811082        1.9437855846       -1.9480778797
 C         -5.3444471061        2.2674254875       -3.0947969304
 C         -3.9694471574        2.1204872792       -3.1118324354
 C         -3.3157266321        1.6544320756       -1.9903718706
 C         -4.0240384654        1.3276680710       -0.8310201878
 N         -3.3389410094        0.8616190520        0.2806762635
 C         -1.9318721033        0.6922722718        0.2026930483
 C         -1.0781308671        1.7401811998        0.5505205568
 C          0.2812329935        1.5500456101        0.4830997534
 C          0.8134639829        0.3243886153        0.0693781220
 C         -0.0385397855       -0.7382113486       -0.2946482750
 C         -1.4164943027       -0.5220635621       -0.2144373094
 C          0.5265581498       -2.0085556637       -0.7318544313
 C         -0.2730326346       -3.0846922995       -1.1215709070
 C          0.2922253292       -4.2850711831       -1.5312714005
 C         -0.5527579637       -5.3512041261       -1.9195953198
 N         -1.2388405384       -6.2139332570       -2.2336045809
 C          1.6827003420       -4.4484191439       -1.5635534345
 C          2.4826054239       -3.3985338811       -1.1861576445
 C          1.9257622523       -2.1825510934       -0.7732624797
 C          2.8023508907       -1.0992948784       -0.3891706731
 N          4.1057211900       -1.2884675850       -0.4305331897
 C          4.9039155306       -0.2732220152       -0.0728150537
 C          6.3026193843       -0.4436448816       -0.1017306465
 C          7.1232746081        0.5950744890        0.2655360608
 C          8.5298632457        0.4368908537        0.2443984013
 N          9.6668486295        0.2974988681        0.2242108049
 C          6.5700402909        1.8473213476        0.6749928084
 C          7.4432656984        2.8977442144        1.0466326397
 N          8.1404713241        3.7545785973        1.3498175958
 C          5.2092073815        2.0319434553        0.7091494440
 C          4.3506986214        0.9774028208        0.3378147219
 N          3.0237805328        1.1591803504        0.3763511679
 C          2.2470353338        0.1534868254        0.0255102105
 C         -3.9873643001        0.5348139303        1.4621119292
 C         -3.2433450260        0.0833827883        2.5555025746
 C         -3.8604561722       -0.2507044402        3.7428268997
 C         -5.2340712418       -0.1408256156        3.8584483213
 C         -5.9709766637        0.3068165178        2.7773856171
 C         -5.3762564592        0.6522329570        1.5717196186
 H         -7.8671304927       -0.2319113701        0.8995534008
 H         -7.8710519085        0.3222575237       -0.7718243118
 H         -6.6914126359       -0.8778630260       -0.2452256796
 H         -6.2927152395        3.1903147461        1.1011530275
 H         -7.5957848722        2.1975212566        1.7539040125
 H         -7.6634663178        2.7474414640        0.0836195625
 H         -7.1189474534        2.0627683160       -1.9497846643
 H         -5.8681414004        2.6304624293       -3.9655870454
 H         -3.4022838244        2.3677195313       -3.9965345714
 H         -2.2418049001        1.5423406825       -2.0091076851
 H         -1.4959727779        2.6823369745        0.8709678892
 H          0.9693887865        2.3368503659        0.7496160306
 H         -2.1196094916       -1.2979409354       -0.4714833535
 H         -1.3486527014       -3.0080433730       -1.1155654312
 H          2.1061243773       -5.3884712779       -1.8830810313
 H          3.5580238646       -3.4839454743       -1.1992109563
 H          6.7068842876       -1.3948478342       -0.4135884639
 H          4.7780350892        2.9724863155        1.0171737722
 H         -2.1702930303       -0.0043736709        2.4720404030
 H         -3.2656071863       -0.5963880490        4.5747606882
 H         -5.7293792339       -0.4004623625        4.7811907448
 H         -7.0422658283        0.3864210457        2.8819000901
  66
  -109.710597381100       5.543569307554033E-003 !
 C         -7.4790092213        1.8798517112        0.6987735041
 C         -5.9596879540        1.7345517653        0.7872659268
 C         -5.4387849051        2.7404789097        1.8381635342
 C         -5.2675584810        2.0503206240       -0.5216937598
 C         -5.8437927884        2.8113565188       -1.5265967191
 C         -5.1348258327        3.1671933160       -2.6611365027
 C         -3.8241794208        2.7524789262       -2.8086342978
 C         -3.2381222051        1.9686788534       -1.8354261508
 C         -3.9474761347        1.6155783408       -0.6877110154
 N         -3.3646035209        0.7726611665        0.2593009313
 C         -1.9712397418        0.5792756242        0.1981255692
 C         -1.1321165659        1.6505251647        0.5236325658
 C          0.2289080763        1.4877657978        0.4716695485
 C          0.7914561270        0.2612629257        0.0987817814
 C         -0.0399865283       -0.8238413946       -0.2475217357
 C         -1.4215692726       -0.6295911946       -0.2026610762
 C          0.5522710985       -2.0958344800       -0.6428020845
 C         -0.2230446808       -3.2089842844       -0.9735500979
 C          0.3687495213       -4.4097474016       -1.3428388067
 C         -0.4527823745       -5.5140888310       -1.6690347444
 N         -1.1225750122       -6.4064582787       -1.9320308417
 C          1.7624792239       -4.5366651947       -1.3921941338
 C          2.5385369812       -3.4531970132       -1.0632736056
 C          1.9550204622       -2.2377511220       -0.6877299809
 C          2.8086583778       -1.1244653675       -0.3378116401
 N          4.1152265478       -1.2836714463       -0.3868565726
 C          4.8917271138       -0.2405872313       -0.0589207822
 C          6.2930956945       -0.3771196872       -0.0978003088
 C          7.0922903498        0.6911479762        0.2325471664
 C          8.5014658451        0.5667293518        0.1987312936
 N          9.6413203757        0.4542657317        0.1682675792
 C          6.5120068698        1.9394748344        0.6142158783
 C          7.3614824156        3.0221985628        0.9452461973
 N          8.0392006952        3.9057632912        1.2146939104
 C          5.1472900430        2.0905074958        0.6598531135
 C          4.3109537681        1.0056989007        0.3265501043
 N          2.9810430668        1.1568097067        0.3748351871
 C          2.2252472843        0.1227333654        0.0556101066
 C         -4.1817460585       -0.0150856349        1.0694714496
 C         -3.6909776882       -1.1410947401        1.7291016478
 C         -4.5349759108       -1.9543943325        2.4594262479
 C         -5.8818243653       -1.6567363086        2.5391706852
 C         -6.3577384745       -0.4955249753        1.9543611755
 C         -5.5246282167        0.3555410062        1.2463750681
 H         -7.8944964903        1.1873984114       -0.0298121990
 H         -7.9342091528        1.6938189430        1.6674987290
 H         -7.7447408090        2.8947281510        0.4162940969
 H         -4.3586146309        2.6678219652        1.9406898377
 H         -5.8894678937        2.5353495591        2.8068584687
 H         -5.6902512471        3.7559282226        1.5392385343
 H         -6.8623882545        3.1495144041       -1.4318451561
 H         -5.6059392412        3.7693134577       -3.4226312537
 H         -3.2591081070        3.0238807488       -3.6873867509
 H         -2.2253130619        1.6192177556       -1.9700714072
 H         -1.5682968964        2.5956302618        0.8100825163
 H          0.8981058787        2.2952198390        0.7234459887
 H         -2.0976073745       -1.4111824159       -0.5087920718
 H         -1.3003255200       -3.1644355021       -0.9473677088
 H          2.2066190770       -5.4766547456       -1.6824743015
 H          3.6156233832       -3.5115388129       -1.0840589364
 H          6.7180339550       -1.3259248474       -0.3886925391
 H          4.6960090683        3.0279100775        0.9479329935
 H         -2.6396932938       -1.3795250833        1.6911110159
 H         -4.1349793840       -2.8237914549        2.9590479549
 H         -6.5543556547       -2.3015809356        3.0832018248
 H         -7.4002558367       -0.2525965657        2.0754376183
