60
 energy: -95.763713482498 gnorm: 0.000041162362 xtb: 6.7.1 (edcfbbe)
C            2.81079325021737        2.47898142606287       -1.10328878975849
C            3.80769916748336        1.52143308035089       -0.52138928177285
C            5.13218697486177        1.91225357135716       -0.36976925288559
C            6.09072114434278        1.10472909483566        0.23035887249078
C            5.74967370860657       -0.12950578503774        0.74564572243430
C            4.43825986711323       -0.55848009049893        0.60224827353260
C            3.75146642500919       -1.73935453097663        1.05245089531172
C            4.15950352027995       -2.87347304928893        1.74206365687645
C            3.22820889576816       -3.86001520283904        2.00293893611932
C            1.91040428120399       -3.73194087607739        1.57273567824423
C            1.48248286159418       -2.61178127485007        0.88273819849606
C            2.40946997763586       -1.61031578275448        0.64070299128851
N            2.25801839350546       -0.41247715107032       -0.04912976426153
C            1.13296797617433       -0.11225877744182       -0.80818466469962
C           -0.11703664883096       -0.03799897594605       -0.20428853961382
C           -1.26303159087717        0.22713607852449       -0.94538432613050
N           -2.50904202454269        0.26417553765474       -0.32801318744598
C           -3.52616734238914       -0.63419277801303       -0.62394422404247
C           -3.57313033357394       -1.62463273800511       -1.59232695827723
C           -4.70505701557821       -2.41704796924573       -1.64809656152223
C           -5.75808814835909       -2.24254579765902       -0.75409045377515
C           -5.69949646960302       -1.27798422281239        0.23270624310184
C           -4.57365160405251       -0.46826924044866        0.30431766453273
C           -4.17346342756519        0.58836553199150        1.19331905689315
C           -4.81025357952267        1.19183523861628        2.26852534549794
C           -4.16608833185630        2.23202700595920        2.90683191078525
C           -2.93323501112500        2.68662057776919        2.45344803875236
C           -2.27064397027713        2.11623232238686        1.37364670690824
C           -0.98345547442650        2.71625207671675        0.89099090573131
C           -2.89346828241464        1.02008525494250        0.77531543787426
C           -1.15250031187783        0.41036340225954       -2.34093077159434
C           -2.28428782286778        0.74554301846871       -3.11681250766418
N           -3.18347548300485        1.04959169977890       -3.76117620265476
C            0.08952209617458        0.31019012779249       -2.95925118239078
C            1.22896200288779        0.04024541211978       -2.20956513796106
C            2.46052126067477       -0.15348011122074       -2.87347152414535
N            3.43905972858909       -0.34750207346767       -3.44054602808356
C            3.48755981767631        0.24076330562301       -0.07177055068127
H            1.83865777127796        2.37466711252688       -0.62543366229650
H            2.68775054775767        2.31397790990184       -2.17484295029808
H            3.15810656672924        3.50022693006880       -0.96393366593254
H            5.42088530690712        2.89172458238100       -0.72273532581908
H            7.10536103792392        1.46393104028664        0.31584535670611
H            6.47547251971415       -0.74419973064567        1.25492359845674
H            5.18548280226233       -2.98013891768388        2.05930912103800
H            3.52451787953369       -4.74905141800951        2.53934596473991
H            1.20607362013121       -4.52451126817068        1.77754922471632
H            0.46100496591977       -2.53563972758681        0.54111624905515
H           -0.20240285881965       -0.18860383198815        0.86119884390001
H           -2.76038952653911       -1.78335886573659       -2.28589674198247
H           -4.76942997388998       -3.18932081785191       -2.40010158492443
H           -6.62661772372096       -2.87939963899049       -0.83137814505376
H           -6.50722813034196       -1.15534896603932        0.93793832834889
H           -5.78667170501483        0.85887167539646        2.58405501547418
H           -4.63104074384195        2.71915178657959        3.75091193494809
H           -2.47461338546325        3.53008631488861        2.94908584393469
H           -0.12148493893125        2.15714599164624        1.25598268294484
H           -0.94689128091899        2.73388440678321       -0.19714433640123
H           -0.89577990775123        3.73761225175788        1.25420730484810
H            0.16732968001506        0.43472584491424       -4.02955968192417
