60
 energy: -95.680502829010 gnorm: 0.000092583435 xtb: 6.7.1 (edcfbbe)
C            2.30930589520790        2.93035663755562        0.79073960926080
C            3.46077141561737        1.99636949668316        0.98011736125611
C            4.63767809631868        2.45780379304522        1.56208687060314
C            5.73182756740194        1.63661186514187        1.79555031503130
C            5.68682175885168        0.28588513330508        1.48169022436447
C            4.53352936794329       -0.21120288601404        0.90272349659364
C            4.14661391770396       -1.53494371052588        0.49012376369625
C            4.77375424621302       -2.76992695666748        0.50890289154613
C            4.09262866538090       -3.86584726527082        0.00209060306828
C            2.81031692155599       -3.73740386134812       -0.52835870612201
C            2.16617194974169       -2.51503133979574       -0.55614667365150
C            2.83764128186795       -1.41691746202028       -0.03267128693806
N            2.42637935478221       -0.10519176007642        0.04842891335836
C            1.20795106381392        0.35406205881455       -0.47418579805681
C            0.00153923170983       -0.08746575764730        0.04024444478283
C           -1.20654846977245        0.35236540694650       -0.47197025247139
N           -2.42363939087480       -0.10661148770143        0.05344746684294
C           -2.83288982616355       -1.41953844806282       -0.01980224629738
C           -2.15790626049715       -2.52083681781322       -0.53197627812730
C           -2.80059108650143       -3.74381990882630       -0.49746554080744
C           -4.08506952224401       -3.86983755827396        0.02831584453575
C           -4.76968862162262       -2.77091763436860        0.52381763215079
C           -4.14386553244259       -1.53538886257743        0.49858212077207
C           -4.53388332952833       -0.20938093098750        0.90075462590275
C           -5.68987713188037        0.29008264558794        1.47218642792325
C           -5.73717637119048        1.64255392818253        1.77809687041999
C           -4.64243572016174        2.46301999704998        1.54497600649936
C           -3.46280517311564        1.99918204641999        0.97043286854306
C           -2.31067630711522        2.93280315573073        0.78303312659613
C           -3.43450295526165        0.64412321100270        0.61713372763801
C           -1.21349708691092        1.20626299252102       -1.64999560851748
C           -2.41457726798675        1.57184541512598       -2.24679180447161
N           -3.41680336659066        1.88205137851624       -2.73727213979467
C           -0.00160430020445        1.59220478843530       -2.20688901652697
C            1.21187097902869        1.20881637604960       -1.65151150551910
C            2.41154827534594        1.57790003215915       -2.24887865402565
N            3.41281017965546        1.89132630114806       -2.73936359984610
C            3.43450206133940        0.64305220152011        0.62008568829116
H            2.39527966281119        3.77447198398240        1.47065916681353
H            1.36108636355546        2.42612153951506        0.96462230560226
H            2.30254268215932        3.31778187359223       -0.22896930939440
H            4.69436737568856        3.49834883486941        1.84545159977701
H            6.62153966965200        2.05425733957424        2.24186566935608
H            6.52489872894292       -0.36188803926506        1.68537376639552
H            5.77192015326921       -2.87464324930979        0.90501468780668
H            4.56477550666522       -4.83664850076733        0.00960858604676
H            2.31273250256972       -4.60775746914631       -0.92864185444842
H            1.17921561429017       -2.41167508962698       -0.97930086784645
H            0.00295782230394       -0.74266879285223        0.90074347460463
H           -1.16909141569722       -2.41980121309231       -0.95120198860036
H           -2.30009065422809       -4.61659438264634       -0.88872215877818
H           -4.55602879949097       -4.84116105994102        0.04129099567638
H           -5.76935522256913       -2.87385985098791        0.91658500011281
H           -6.52824567349606       -0.35717844151346        1.67629212147365
H           -6.62902283662152        2.06211842453571        2.21830277495297
H           -4.70072302335819        3.50497923133430        1.82277570437886
H           -1.36291162288795        2.42845726136831        0.95897935695613
H           -2.30181621645616        3.32022128172300       -0.23667234266960
H           -2.39792477322377        3.77704743391031        1.46266076402626
H           -0.00283961004714        2.20258688437262       -3.10056113110620
