  60
        -95.72494198
 C          2.3289968345        2.8748560707        0.9162421564
 C          3.5250390105        1.9697329909        0.9187919175
 C          4.7539704565        2.4515371855        1.3496116729
 C          5.8808786192        1.6458451896        1.4575786898
 C          5.8119976015        0.2968982352        1.1751853344
 C          4.6032894809       -0.2168760726        0.7299074930
 C          4.1797025218       -1.5520329164        0.4058760860
 C          4.8277071538       -2.7793672360        0.3868766133
 C          4.1145941332       -3.8983422813        0.0030286172
 C          2.7788467587       -3.8009379550       -0.3752794145
 C          2.1160070792       -2.5875009658       -0.3675390172
 C          2.8199747745       -1.4677923035        0.0435313842
 N          2.4083835491       -0.1449913915        0.1206870549
 C          1.2102877836        0.3175181650       -0.4061013721
 C         -0.0019911902       -0.1666777042        0.0710383809
 C         -1.2098655868        0.3196155421       -0.4135429813
 N         -2.4126344673       -0.1391692696        0.1079221781
 C         -2.8355777504       -1.4568079669        0.0179087803
 C         -2.1457550453       -2.5755509966       -0.4192233440
 C         -2.8184665266       -3.7834062748       -0.4364045529
 C         -4.1498779048       -3.8759624398       -0.0414951590
 C         -4.8489348056       -2.7575394140        0.3687439669
 C         -4.1910931073       -1.5355240944        0.3971231749
 C         -4.5996712665       -0.2014922511        0.7436887805
 C         -5.7984028177        0.3160703133        1.2114540017
 C         -5.8539928255        1.6624347299        1.5084804123
 C         -4.7238639996        2.4621826559        1.3900559153
 C         -3.5045950114        1.9766415393        0.9366657036
 C         -2.3043995083        2.8760858558        0.9188840661
 C         -3.4758806647        0.6349273949        0.5587477432
 C         -1.2016336260        1.2710701529       -1.4569301288
 C         -2.4135961296        1.7095384260       -2.0347175171
 N         -3.3858287611        2.0509878786       -2.5380680990
 C          0.0055213546        1.7357520677       -1.9641405300
 C          1.2089504203        1.2692370043       -1.4494253457
 C          2.4234662851        1.7051053523       -2.0239666062
 N          3.3931248898        2.0521059710       -2.5286664296
 C          3.4831701625        0.6255705062        0.5508833787
 H          2.4860001047        3.6931699069        1.6155725512
 H          1.4289310330        2.3367438003        1.2095617655
 H          2.1646020876        3.3083341412       -0.0707413820
 H          4.8276681925        3.4933216627        1.6255337387
 H          6.8093491625        2.0803519692        1.7950619327
 H          6.6673187347       -0.3475675621        1.3040547294
 H          5.8683765804       -2.8512660923        0.6627450662
 H          4.5984488730       -4.8629111841       -0.0145675630
 H          2.2483032225       -4.6886265950       -0.6852105694
 H          1.0862266305       -2.5220199820       -0.6829235544
 H         -0.0054875968       -0.8868300568        0.8750368809
 H         -1.1201259868       -2.5120953992       -0.7489459771
 H         -2.2999617145       -4.6703032977       -0.7678934433
 H         -4.6417312283       -4.8363411324       -0.0672970576
 H         -5.8866745259       -2.8255917730        0.6567831711
 H         -6.6565602939       -0.3237063122        1.3452875578
 H         -6.7739009910        2.0994475490        1.8650295704
 H         -4.7872443067        3.5023398459        1.6748271346
 H         -1.4033114608        2.3345601297        1.2025586594
 H         -2.1500835188        3.3063424577       -0.0711433381
 H         -2.4492289297        3.6965743321        1.6181128448
 H          0.0087006452        2.4486739670       -2.7757109667
