60
 energy: -95.680490233665 gnorm: 0.000044121395 xtb: 6.7.1 (edcfbbe)
C            2.30595563392194        2.90529643874885        0.83050820377001
C            3.46595971663641        1.97584897955332        0.98841314491334
C            4.65072439307973        2.43848674184000        1.55322065217940
C            5.75220840587982        1.62056481202652        1.76226546148437
C            5.70708876873050        0.27150342342273        1.44122219325748
C            4.54641309572360       -0.22647434629644        0.87807671785648
C            4.15710347666912       -1.54921054856043        0.46448659558099
C            4.78846881559166       -2.78214486780183        0.46750009900568
C            4.10281078545566       -3.87801122624812       -0.03330687113855
C            2.81179385219199       -3.75130946548052       -0.54260907847558
C            2.16366644008913       -2.53074902613062       -0.55533669265750
C            2.83991265251606       -1.43273575602890       -0.03788705962979
N            2.42634382222057       -0.12241468777575        0.05547795339801
C            1.20780944496312        0.34227571701486       -0.46152195544419
C           -0.00015145753834       -0.10156173984833        0.04744868131559
C           -1.20632940627798        0.34839700267444       -0.46032046442615
N           -2.42668300684524       -0.11021462148140        0.05790116602053
C           -2.84735123094764       -1.41822736358757       -0.03601469225605
C           -2.17767794289280       -2.51936200955003       -0.55537598965073
C           -2.83229763511475       -3.73645377334116       -0.54280966071720
C           -4.12322552922356       -3.85674542144145       -0.03173742393615
C           -4.80229529681574       -2.75771132936736        0.47108992234023
C           -4.16439485403679       -1.52814818852562        0.46820849452077
C           -4.54604913840615       -0.20372827768909        0.88355119653759
C           -5.70322531652318        0.29996683683525        1.44881391352451
C           -5.74067445093912        1.64898333085293        1.77103758326017
C           -4.63519970765819        2.46124507553532        1.56097676917257
C           -3.45378092214516        1.99277401486265        0.99398729087998
C           -2.28907480874500        2.91611503485567        0.83488562874575
C           -3.43575451330994        0.64256332037215        0.62207956780852
C           -1.21018790345555        1.21706640020170       -1.62763797451730
C           -2.40992010748090        1.59520561798607       -2.21933067510432
N           -3.41089774467144        1.91636577468729       -2.70530960422682
C            0.00305987579154        1.60490444977768       -2.18022803415495
C            1.21486381034016        1.21081681257417       -1.62892054876324
C            2.41588010867445        1.58260686611032       -2.22202728555265
N            3.41794403545754        1.89832724575701       -2.70931420989459
C            3.44022666312326        0.62547883483080        0.61754369577863
H            2.39470092479171        3.73636708924929        1.52600694384973
H            1.36332149494975        2.39136291978908        1.00589045503839
H            2.28423629740414        3.31295585508458       -0.18099095677192
H            4.70745973582916        3.47718395925989        1.84330577968414
H            6.64771242189958        2.03913143525746        2.19594780679196
H            6.55085079400423       -0.37417165947311        1.62735976338440
H            5.79308574601137       -2.88531097642576        0.84737021629545
H            4.57808502191857       -4.84730804291571       -0.03764320780079
H            2.31046664392835       -4.62160153398037       -0.93831706920071
H            1.16974098760638       -2.42903728976182       -0.96217588221870
H           -0.00144558464169       -0.76645440897058        0.90045456188429
H           -1.18378671252924       -2.42257827427097       -0.96351863092295
H           -2.33619987112650       -4.60906447458601       -0.94000077617741
H           -4.60364581823898       -4.82349385621827       -0.03624715953600
H           -5.80687698846131       -2.85587804005820        0.85237423653218
H           -6.55020888598310       -0.34128550844853        1.63563140440898
H           -6.63331108840780        2.07191167297466        2.20638641592162
H           -4.68601274626160        3.50000943316310        1.85192953324852
H           -1.34900381011636        2.39719745661415        1.00937464213205
H           -2.26616168294041        3.32358870469534       -0.17665349510819
H           -2.37274079769444        3.74767243328025        1.53042421785821
H            0.00421594778685        2.22559469989031       -3.06677177135145
