60
 energy: -95.763949904676 gnorm: 0.000066862331 xtb: 6.7.1 (edcfbbe)
C            2.33562226655511        2.87615397644767        0.93123813745068
C            3.53106365879460        1.97032544074739        0.92796755302040
C            4.76185478393773        2.45303567882155        1.35451147072215
C            5.89128770590025        1.64972693470502        1.45557967699269
C            5.82387184840629        0.30128737841712        1.16931019357208
C            4.61386163525894       -0.21389374117069        0.72791594000957
C            4.19449493005194       -1.54925495810512        0.39786590187441
C            4.84836949446442       -2.77390028522550        0.36990104981080
C            4.13971092372395       -3.89431181349335       -0.01902480628143
C            2.80214086648998       -3.80063881132060       -0.39309460315855
C            2.13362591942117       -2.59010911740445       -0.37557674309654
C            2.83336591158154       -1.46937623935910        0.04043964446923
N            2.41436340789519       -0.14738586490382        0.12817065928461
C            1.21205554293278        0.31395931661673       -0.39687813474294
C           -0.00019106732198       -0.16148788017622        0.09147316824317
C           -1.21063792740844        0.31976110576544       -0.39515982473668
N           -2.41463349559101       -0.13746246212833        0.13044202821859
C           -2.84287348808861       -1.45565946184246        0.03274654566761
C           -2.15116887639337       -2.57764031037954       -0.39321636564405
C           -2.82787538676667       -3.78342720453710       -0.41957958029420
C           -4.16560592574318       -3.87098136218390       -0.04452375157724
C           -4.86619718486831       -2.74902551901541        0.35444145069552
C           -4.20400679797241       -1.52909064283701        0.39168423175399
C           -4.61372420838090       -0.19347023913428        0.73264418705802
C           -5.81923865621275        0.32707230283959        1.18012313018335
C           -5.87653500893762        1.67380647078502        1.47641953972977
C           -4.74181105929869        2.47014363451552        1.37876026904061
C           -3.51535101776313        1.98187877370477        0.94633191541637
C           -2.31298639566294        2.87844585561406        0.95282606359619
C           -3.48479360061561        0.64013989508727        0.56657255976492
C           -1.20406581211970        1.26105341778649       -1.44912482945474
C           -2.41453351609102        1.69314786451770       -2.03471050921469
N           -3.38233354802622        2.03115950710277       -2.55037847302818
C            0.00275806015501        1.71732287107541       -1.96698735020002
C            1.20811212723285        1.25387895794163       -1.45214669439088
C            2.41943854555861        1.67700931188699       -2.04247153250189
N            3.38745023327804        2.00682738777661       -2.56305319915471
C            3.49039449021316        0.62622862399472        0.55743220860273
H            2.49776621456354        3.69458101432012        1.62891625947028
H            1.43755980256590        2.33836752831665        1.23001992714468
H            2.16631486388736        3.30951922544293       -0.05558729327003
H            4.83540677608465        3.49444778790533        1.63254249251793
H            6.82079259964369        2.08517508560833        1.79047504763427
H            6.68169974421317       -0.34136240905568        1.29215874430670
H            5.89006314884216       -2.84330006047398        0.64319632094649
H            4.62884548648134       -4.85659174655412       -0.04371290296264
H            2.27503540531275       -4.68934395685688       -0.70702132860564
H            1.10233512816217       -2.52798198604623       -0.68601957730592
H           -0.00150891755737       -0.87169057164334        0.90488889443181
H           -1.11993461333967       -2.51959335898125       -0.70480761536481
H           -2.30731465176816       -4.67320548384475       -0.74129463081030
H           -4.66135268495306       -4.82964992971298       -0.07655086280141
H           -5.90803432494514       -2.81367452260463        0.62838101434391
H           -6.68144095483893       -0.31028970919954        1.29989185724662
H           -6.80225901323696        2.11317677509508        1.81660057185417
H           -4.80766871419048        3.51001792482540        1.66438441001406
H           -1.41923920963641        2.33213916563438        1.24919278494439
H           -2.14034825843429        3.31417512257169       -0.03235607964321
H           -2.46834031889082        3.69534009793776        1.65381722512776
H            0.00384683427298        2.42085708649796       -2.78684213956458
