73
 energy: -121.379375524558 gnorm: 0.000071213527 xtb: 6.7.1 (edcfbbe)
C           -7.72401267031879       -0.88674646004530       -3.08168971842199
C           -6.37947730011944       -1.20737822622808       -3.07180768073072
C           -5.54201353576753       -0.69196893271250       -2.09668147980695
C           -6.03883992312391        0.14974884815908       -1.10678015954464
C           -7.40050776305148        0.48955728924114       -1.14083977295078
C           -8.23145856841589       -0.03067797483556       -2.11694679846798
O           -7.96404303407751        1.34821445792293       -0.23434998751808
C           -7.15198984164745        1.86895151387327        0.73821158795732
C           -7.73300667327158        2.72813288537846        1.65355729693513
C           -6.97442636807683        3.27219284209706        2.67822625167157
C           -5.63728452276792        2.94009105781176        2.79009671389428
C           -5.04855952149452        2.08164846254480        1.87665401873897
C           -5.78870465176681        1.54719587400170        0.82706317500251
N           -5.22909081305334        0.68470256778044       -0.10982932151336
C           -3.84767958582970        0.37374466836147       -0.05793877671593
C           -2.89997923572472        1.37822890679890       -0.30047949601683
C           -1.56875765065272        1.06865534163383       -0.24569278462175
C           -1.13819693192570       -0.23960278249348        0.03630226351931
C           -2.08867793912339       -1.26204105560067        0.27317146871990
C           -3.44440819014582       -0.91352940771279        0.22693219135599
C           -1.63541496503546       -2.60309801260792        0.55503971217660
C           -2.51260500894516       -3.67498869692946        0.77967228027073
C           -2.04734397035159       -4.93986050372112        1.04637410845087
C           -0.67587181450746       -5.19082805784053        1.10060443889434
C            0.20921733784938       -4.16749700717482        0.88212669070046
C           -0.24734687433897       -2.86842472708038        0.60636545390439
C            0.71007106305445       -1.83118571580225        0.37574843835081
N            2.01130401405519       -2.07649301481599        0.42709422512980
C            2.91975442609961       -1.12523800277012        0.21600556186809
C            4.28789348395257       -1.36806681574437        0.25822081707897
C            5.22003484636873       -0.36129541227259        0.03495995364624
C            6.64794798722208       -0.70738219352821        0.03192766435184
C            7.49423966179112       -0.30567106759531       -1.00150390433784
C            8.82681338254959       -0.67514962879237       -0.95323368101066
N            9.35244846352879       -1.39618097838942        0.02321338251247
C            8.55003169649128       -1.78841977630739        0.99844609409827
C            7.20179483177364       -1.48042576071995        1.05175000274831
C            4.77708159036413        0.94579462505179       -0.22836997886332
C            5.71943903365301        2.06151759055751       -0.39138600989582
C            5.58420632485648        2.96852000134725       -1.44171617437020
C            6.49039798515319        4.00951832923544       -1.54512434064844
N            7.48321270537541        4.20298231293944       -0.69330237371638
C            7.60539015804319        3.35246472661874        0.31234825411324
C            6.76040687651583        2.27507067042902        0.51202700112520
C            3.41389799676331        1.20859691287493       -0.28847892743636
C            2.46346965229870        0.21473217102538       -0.07855989365261
N            1.15395902556523        0.44577222181144       -0.13434108298191
C            0.26108677556633       -0.51337105384108        0.08362198797990
H           -8.37855188850781       -1.28974178252197       -3.83797613670655
H           -5.96984757939469       -1.86074897252534       -3.82638010006696
H           -4.49206115086092       -0.93834185224563       -2.10592295465195
H           -9.27191644338816        0.25163634566359       -2.10561372275873
H           -8.78174612809730        2.95472569747464        1.54785562004325
H           -7.43387184628151        3.94325581093985        3.38631746188431
H           -5.04104465251198        3.34514844821554        3.59286835536093
H           -4.00773768140917        1.81848843888830        1.97954355692611
H           -3.23214509789883        2.37961759471514       -0.52920733216822
H           -0.81440122146510        1.81891219986754       -0.42579773752958
H           -4.20684912292056       -1.65256056619435        0.41642825234210
H           -3.57877109218499       -3.51661133586038        0.74242629381835
H           -2.74731029199480       -5.74495977885473        1.21447142604687
H           -0.31732942667462       -6.18704587829476        1.31184376935653
H            1.27546308389566       -4.33150538689376        0.91413842465367
H            4.61747234180866       -2.37901217443951        0.44349030465574
H            7.11469189504356        0.27231200775913       -1.83025286793055
H            9.51260688773394       -0.38009288439948       -1.73680861262468
H            9.01646029608500       -2.37888685277687        1.77678728483239
H            6.59196629505895       -1.81369405831491        1.87807943288070
H            4.79824795406927        2.84641468408844       -2.17189923253313
H            6.42199004667237        4.72790459841040       -2.35214726545638
H            8.42438189441911        3.54814450187847        0.99227639038428
H            6.89748747094118        1.61945699911404        1.35838125429047
H            3.06425744258286        2.21328837765568       -0.47126764167433
