73
 energy: -121.419659583202 gnorm: 0.000053640568 xtb: 6.7.1 (edcfbbe)
C           -7.75728760055251       -1.03950971818292       -2.94119639564882
C           -6.41105700599272       -1.34239818444867       -2.94661460747930
C           -5.55986618131970       -0.77274107526778       -2.01187245663611
C           -6.04380876442462        0.10221693761190       -1.04711030232848
C           -7.40617921063277        0.43042581154247       -1.07329849432022
C           -8.25094900039461       -0.14225730491824       -2.00584963218743
O           -7.96406409205339        1.33444845770146       -0.20449249403434
C           -7.13680718326365        1.91286094093784        0.72547497663483
C           -7.71372047346006        2.81104339093566        1.60382756691888
C           -6.95013924276739        3.41066514670091        2.59436709708799
C           -5.61323437391175        3.08876263001157        2.71010714788827
C           -5.02930659033656        2.19007822249262        1.83030242629867
C           -5.77193311919247        1.60764841834931        0.81081993614067
N           -5.21537697265946        0.69644792343774       -0.09097068308729
C           -3.83885996026823        0.39772440908704       -0.04639861624632
C           -2.89525880172440        1.40700779503841       -0.25869776941139
C           -1.55883849445235        1.09857058087699       -0.21107542504969
C           -1.12887742417112       -0.20929994440625        0.03690375556108
C           -2.06903927361384       -1.23922453695535        0.24226422588834
C           -3.42311118151016       -0.89953247574042        0.20407227710671
C           -1.61483954376232       -2.60109970501878        0.48895419596176
C           -2.50103514224216       -3.66879062404754        0.67144926747497
C           -2.04573016249148       -4.94871184717336        0.90272033660325
C           -0.68200276491240       -5.21226268807348        0.96020669439866
C            0.21285536001218       -4.18361411041364        0.77923729936115
C           -0.23513761801689       -2.88119927232287        0.54214144263640
C            0.73330145474689       -1.82504305910693        0.34400197260716
N            2.01843770755679       -2.11608011062165        0.40409769139338
C            2.89670638240677       -1.12226403266007        0.20806141179337
C            4.27931074382012       -1.38464618327543        0.25409017240793
C            5.19300174807440       -0.38249018758493        0.04646021021906
C            6.62868874594549       -0.70898961385712        0.03800565109715
C            7.45831545334520       -0.31568891330598       -1.01048515131064
C            8.79687133877201       -0.66658130145414       -0.96560076294438
N            9.33881077781655       -1.35781853990161        0.02242561153541
C            8.55138245471204       -1.74150431000813        1.01246023773097
C            7.19845502633739       -1.45218883843717        1.06968804127720
C            4.74700393426627        0.94850379452230       -0.20032248920705
C            5.71243930829678        2.04954330217862       -0.35433518170039
C            5.61063442590490        2.94467736425172       -1.41724985898659
C            6.53740059933790        3.96878077084783       -1.51568048900566
N            7.51652797512351        4.15329708823607       -0.64696117095734
C            7.60502436231286        3.31499516117613        0.37140874272017
C            6.73806290787888        2.25333831702826        0.56695478515094
C            3.40410583486713        1.22240418032389       -0.25725688296384
C            2.45037866702846        0.20537147410327       -0.05824865797117
N            1.14272528888790        0.49296692245016       -0.11185614940436
C            0.28592130116494       -0.49257665004707        0.08338353549983
H           -8.42445808844638       -1.48333622290521       -3.66300096577541
H           -6.00658190580890       -2.02218107674738       -3.68072702236421
H           -4.50678055204055       -1.00472434340001       -2.04210332714333
H           -9.29316081127397        0.13347939970255       -1.98656580323646
H           -8.76553669543485        3.02362802220650        1.49848327951189
H           -7.40792538419327        4.11298127296741        3.27282161594843
H           -5.01029315616398        3.53018002002288        3.48864403199570
H           -3.98743448545752        1.93468032268656        1.94391644689549
H           -3.22721650861911        2.41371071294615       -0.46334370617435
H           -0.80576618965796        1.85353396250605       -0.37214852025747
H           -4.18330829681019       -1.64444631661925        0.37727887414055
H           -3.56587843595774       -3.50476685369561        0.62995810701362
H           -2.75585562919689       -5.75107610318991        1.03899025680929
H           -0.33094927549308       -6.21673282199820        1.14266309726812
H            1.27779408675251       -4.35132042967407        0.81256104863279
H            4.59939818175273       -2.40074082657567        0.42899335827598
H            7.06395345313519        0.24040436168378       -1.84726708181636
H            9.47250311449629       -0.37854308612823       -1.76023844040319
H            9.03272386711694       -2.30824421619160        1.79896231848887
H            6.59763395213667       -1.77755383577998        1.90560579831685
H            4.83475908189527        2.82712536604653       -2.15872948068176
H            6.49727565249768        4.67870180965086       -2.33169173555074
H            8.41446599937802        3.50463665507538        1.06403010406236
H            6.84799630354604        1.60489559659909        1.42274904325891
H            3.04859067228701        2.22705779351793       -0.42981510596506
