73
 energy: -121.379375787437 gnorm: 0.000038809254 xtb: 6.7.1 (edcfbbe)
C           -7.67544168703930       -0.66340516110153       -3.19570959607368
C           -6.33098677231949       -0.98449660937898       -3.18830011804569
C           -5.50970935301525       -0.54362182951295       -2.16407952245716
C           -6.02339359392491        0.22247837285279       -1.12281822898003
C           -7.38517561735271        0.56231954076024       -1.15147103357012
C           -8.19969805161034        0.11697610301585       -2.17714074045404
O           -7.96419175875600        1.34798760855763       -0.19002684381194
C           -7.16710732122882        1.79621237263963        0.83004599424528
C           -7.76281958854322        2.58246509005123        1.79980118404161
C           -7.01877584262464        3.05118815038060        2.87139909416519
C           -5.68114408598614        2.71796296174337        2.97389647488254
C           -5.07765454257189        1.93208950272216        2.00635190694826
C           -5.80374006928118        1.47295472507729        0.91233567016016
N           -5.22963807869633        0.68280751890399       -0.07746612206343
C           -3.84733044415961        0.37250856762903       -0.03125095354273
C           -2.90086080749258        1.39060464939796       -0.21326332568626
C           -1.56929581923186        1.08042888694445       -0.17032642688762
C           -1.13776042492452       -0.24030322262327        0.04384145601113
C           -2.08723789781124       -1.27492761403255        0.22573392970103
C           -3.44349943906193       -0.92720133238810        0.18786693222051
C           -1.63255350446629       -2.62695847359707        0.44609118815550
C           -2.50855176258695       -3.70921381625098        0.62001773933213
C           -2.04189627742575       -4.98403761704813        0.83107870256929
C           -0.67015882292269       -5.23510152246307        0.87771625311880
C            0.21380170235960       -4.20162680058928        0.70783890828735
C           -0.24419781796263       -2.89218190796371        0.48957121092406
C            0.71214445134960       -1.84420313415533        0.30828011963708
N            2.01356594508938       -2.09026522165953        0.34880504120853
C            2.92104124002774       -1.12977489706337        0.17934509180342
C            4.28937062151739       -1.37306265432112        0.21011172922668
C            5.22056986528510       -0.35736189845164        0.02689244700069
C            6.64865823074798       -0.70248429222555        0.00991729101250
C            7.49494436343809       -0.26190328606002       -1.00750268319887
C            8.82764199809872       -0.63256166140546       -0.97283941221206
N            9.35331144771565       -1.38969033752953       -0.02413281538667
C            8.55083425342682       -1.81869457221388        0.93545081747575
C            7.20251841341251       -1.51328220522897        0.99999335344210
C            4.77643419248850        0.95884672614031       -0.18344063667592
C            5.71790101536188        2.08023379564449       -0.30858154379869
C            5.57798483954597        3.02449284064765       -1.32495219009231
C            6.48396382251854        4.06841980649306       -1.39515438729535
N            7.48090035346033        4.23088026936161       -0.54166071908959
C            7.60742171075558        3.34481727035148        0.43225514174165
C            6.76299488056387        2.26108235505919        0.59714034749089
C            3.41296489942755        1.22335127758704       -0.22816323926529
C            2.46345839285392        0.22133813081428       -0.05629320128977
N            1.15368984514355        0.45409209522211       -0.09762088164182
C            0.26184222827104       -0.51467226270572        0.07785886815583
H           -8.31721961453555       -1.00786068751940       -3.99086705617537
H           -5.90884121828495       -1.57973811913441       -3.98299861474362
H           -4.45954011112662       -0.78920186124309       -2.17375499042651
H           -9.24077197546223        0.39677647005092       -2.16109654621600
H           -8.81119655167966        2.81277949747397        1.69863734241161
H           -7.48987338545553        3.66530966994925        3.62222481295022
H           -5.09621064069308        3.06527899578457        3.81129831355844
H           -4.03645053706432        1.66694529960871        2.10040138282352
H           -3.23425088690584        2.40242108222026       -0.38786446304734
H           -0.81542896605069        1.84018689073755       -0.30751635090783
H           -4.20585606645974       -1.67663205581309        0.33127006651368
H           -3.57487293681795       -3.55083494301412        0.58777885531759
H           -2.74095204511040       -5.79689054543046        0.96140658936551
H           -0.31054219371408       -6.23921449298619        1.04522312791152
H            1.28023639818269       -4.36520531416889        0.73554952069845
H            4.61991587224597       -2.39056809041836        0.35292083412233
H            7.11541330512244        0.34680298375430       -1.81396195332750
H            9.51355197901953       -0.30793329596045       -1.74452311628932
H            9.01724250657591       -2.43799515206712        1.69106459702662
H            6.59250966768957       -1.87763111624500        1.81296801480217
H            4.78861873187078        2.92870275441696       -2.05539208664908
H            6.41203709257695        4.81530365379164       -2.17556531970860
H            8.42977980484689        3.51572543224070        1.11478811569504
H            6.90387182206444        1.57545269466129        1.41872121420208
H            3.06253227750422        2.23452080484153       -0.36891745031687
