  73
       -121.37325337
 C         -7.6785953246       -0.6426422415       -3.2080727983
 C         -6.3334435369       -0.9636623692       -3.2045853103
 C         -5.5107515397       -0.5293744528       -2.1793135426
 C         -6.0236325060        0.2306664993       -1.1325774853
 C         -7.3860882545        0.5705523066       -1.1571258681
 C         -8.2021617005        0.1311139925       -2.1845109840
 O         -7.9626414018        1.3495876863       -0.1899581229
 C         -7.1657740153        1.7875304962        0.8336177578
 C         -7.7599980671        2.5655085790        1.8113580085
 C         -7.0142018864        3.0232119874        2.8860650282
 C         -5.6761496609        2.6879869250        2.9842330601
 C         -5.0739631936        1.9110732450        2.0093376434
 C         -5.8020752061        1.4622642416        0.9117861844
 N         -5.2296316429        0.6828806265       -0.0856762748
 C         -3.8464382712        0.3716224512       -0.0419572325
 C         -2.9004852676        1.3907338739       -0.2264946515
 C         -1.5693042496        1.0805012027       -0.1821649489
 C         -1.1372968857       -0.2394391327        0.0367287731
 C         -2.0871680523       -1.2752280649        0.2206029689
 C         -3.4434380276       -0.9274770239        0.1798220104
 C         -1.6324203193       -2.6250865519        0.4472218519
 C         -2.5077238022       -3.7082089251        0.6219668316
 C         -2.0404784968       -4.9811471990        0.8413758550
 C         -0.6682758267       -5.2304913385        0.8958444346
 C          0.2149825324       -4.1967985365        0.7245039308
 C         -0.2433547042       -2.8890416633        0.4977703806
 C          0.7137708128       -1.8416963505        0.3148367576
 N          2.0129103840       -2.0863624487        0.3619847457
 C          2.9185838820       -1.1260192063        0.1900829517
 C          4.2877144578       -1.3684863996        0.2246900485
 C          5.2188243389       -0.3534386098        0.0361565378
 C          6.6461439725       -0.6995973349        0.0183009542
 C          7.4898324143       -0.2678703991       -1.0054248625
 C          8.8216313241       -0.6413422634       -0.9734761453
 N          9.3491811472       -1.3927792246       -0.0212265589
 C          8.5496900546       -1.8130238295        0.9447576470
 C          7.2023157788       -1.5046610185        1.0120269245
 C          4.7745950794        0.9621920662       -0.1819998790
 C          5.7168871105        2.0815303218       -0.3121033169
 C          5.5715551620        3.0281904752       -1.3258369189
 C          6.4797920782        4.0695412349       -1.4021379327
 N          7.4853875771        4.2269922063       -0.5578183688
 C          7.6174270575        3.3391896396        0.4138306994
 C          6.7701833541        2.2588971667        0.5852869659
 C          3.4109885133        1.2261361963       -0.2298102506
 C          2.4604968658        0.2239738299       -0.0550133420
 N          1.1523505961        0.4563501246       -0.1024851681
 C          0.2622623226       -0.5114446704        0.0751212257
 H         -8.3211226582       -0.9828305073       -4.0044403223
 H         -5.9129079949       -1.5537667356       -4.0038171727
 H         -4.4606099076       -0.7742215342       -2.1909992802
 H         -9.2434465511        0.4096628713       -2.1650405070
 H         -8.8081675034        2.7979190472        1.7134268378
 H         -7.4837627360        3.6302816086        3.6434858681
 H         -5.0908163179        3.0262730438        3.8250602636
 H         -4.0328364326        1.6444810872        2.0988009087
 H         -3.2347310049        2.4017674798       -0.4040426919
 H         -0.8141635192        1.8386726982       -0.3210687433
 H         -4.2060085237       -1.6765045376        0.3248757705
 H         -3.5742052054       -3.5515354533        0.5838970092
 H         -2.7391393979       -5.7942851517        0.9723575469
 H         -0.3084703872       -6.2332888515        1.0708472182
 H          1.2816890266       -4.3575043122        0.7573410931
 H          4.6177429658       -2.3853939552        0.3728098809
 H          7.1083401638        0.3356536053       -1.8148676020
 H          9.5052681129       -0.3240951957       -1.7502281900
 H          9.0177782425       -2.4278102772        1.7030132673
 H          6.5944412840       -1.8625267006        1.8294227796
 H          4.7762680446        2.9357883911       -2.0502016047
 H          6.4037390601        4.8174333899       -2.1811226069
 H          8.4464164188        3.5062486566        1.0892826666
 H          6.9161671488        1.5723439033        1.4052835620
 H          3.0593711722        2.2363342985       -0.3743825635
