  76
       -115.19689660
 C         -5.0515583268       -2.9145754411        1.5597955247
 C         -3.8471493253       -2.5634995722        2.1495566783
 C         -3.0969073289       -1.5228983351        1.6424453563
 C         -3.5395252273       -0.8131882699        0.5230947312
 N         -2.7633049803        0.2141000410       -0.0145374967
 C         -3.3582460281        1.3482267290       -0.5682928640
 C         -2.7860860890        1.9785339130       -1.6765789055
 C         -3.3533915937        3.1228751355       -2.1978922285
 C         -4.5013871338        3.6581882298       -1.6345096084
 C         -5.0801352401        3.0319348275       -0.5413073325
 C         -4.5169824552        1.8904281669       -0.0074371386
 C         -1.3689646234        0.1034782601       -0.0036035701
 C         -0.5736491410        1.2364147668        0.2017998524
 C          0.8137707675        1.1391041638        0.1356254358
 C          1.4521559174       -0.1132928547       -0.0008547951
 C          0.6295085631       -1.2539157420       -0.1302208549
 C         -0.7565116054       -1.1385487756       -0.2003029616
 N          1.2156440617       -2.5088528029       -0.2216720742
 C          0.3371445082       -3.6226306928       -0.1837059606
 C          0.0979171270       -4.3840554457       -1.3249376073
 C         -0.7857049834       -5.4454293362       -1.2723409990
 C         -1.4392504038       -5.7539788418       -0.0892149397
 C         -1.2026538655       -4.9962415585        1.0476387633
 C         -0.3191871555       -3.9354736514        1.0040894604
 C          2.5771860244       -2.7221289824       -0.3633521562
 C          3.0476663426       -4.0326487621       -0.4885790173
 C          4.3869473133       -4.2849158454       -0.7345027259
 C          5.2687528173       -3.2216288425       -0.8783062090
 C          4.8220734327       -1.9291306715       -0.6920193580
 C          3.4904651499       -1.6264907197       -0.3632507193
 B          2.9583737590       -0.2283426887       -0.0124682903
 C          3.7033681511        1.0718907290        0.3261502905
 C          5.0726491991        1.1693989070        0.6239731093
 C          5.7118165517        2.3788431608        0.8069489586
 C          4.9959434259        3.5634009498        0.6922958038
 C          3.6289333732        3.5164187213        0.4757902980
 C          2.9655303865        2.2922332431        0.3505802253
 N          1.5850783186        2.2882140093        0.2340234034
 C          0.8866661708        3.5244521841        0.2399369045
 C          0.2834821901        3.9768508267       -0.9303460811
 C         -0.4276956879        5.1612728208       -0.9282365395
 C         -0.5421898956        5.9036050191        0.2370113526
 C          0.0599924162        5.4560120474        1.4028247514
 C          0.7707395528        4.2705498575        1.4095866917
 C         -4.7556875179       -1.1692490421       -0.0643570500
 C         -5.5011978552       -2.2083150959        0.4547918531
 H         -5.6359931005       -3.7291174888        1.9589530695
 H         -3.4950814594       -3.0984432787        3.0192469951
 H         -2.1654661608       -1.2416086756        2.1105985715
 H         -1.8998889814        1.5548189077       -2.1249716902
 H         -2.9023635680        3.5956163752       -3.0579709335
 H         -4.9425339625        4.5536375330       -2.0446352241
 H         -5.9733781879        3.4428779044       -0.0943010081
 H         -4.9615247048        1.4134542953        0.8537326012
 H         -1.0603806296        2.1799550697        0.3901538678
 H         -1.3804271465       -1.9975611656       -0.3893522735
 H          0.6052569863       -4.1317601030       -2.2444653780
 H         -0.9698872306       -6.0312296198       -2.1604606412
 H         -2.1311693948       -6.5812574901       -0.0534254998
 H         -1.7082982055       -5.2346741633        1.9710238011
 H         -0.1276890438       -3.3384820665        1.8832900852
 H          2.3688923073       -4.8664910448       -0.3994649391
 H          4.7315115332       -5.3035534039       -0.8295115852
 H          6.3068444119       -3.4092650348       -1.1136192423
 H          5.5176036181       -1.1138832219       -0.8096433926
 H          5.6408957625        0.2584610147        0.7211262457
 H          6.7715411296        2.4068908275        1.0177686417
 H          5.4909290976        4.5180560189        0.7865872543
 H          3.0800850013        4.4429596285        0.4095260163
 H          0.3786621474        3.3903432722       -1.8319503531
 H         -0.8939000904        5.5076648189       -1.8380206933
 H         -1.0994084390        6.8277499082        0.2367927848
 H         -0.0296412624        6.0302099793        2.3128850894
 H          1.2376639767        3.9101695668        2.3143875995
 H         -5.1012218305       -0.6305008045       -0.9344177539
 H         -6.4375758402       -2.4756143689       -0.0123652341
