  60
  -95.3280460692000       0.326428354000853      !
 C          2.3011501142        2.8739964442        0.9251634633
 C          3.5093919453        1.9851440020        0.9160047290
 C          4.7369098732        2.4880449913        1.3260941737
 C          5.8782590164        1.7013235879        1.4198259724
 C          5.8273419367        0.3508053159        1.1422436266
 C          4.6203927200       -0.1843314455        0.7178418246
 C          4.2158383694       -1.5261993702        0.3987150887
 C          4.8864050882       -2.7409654420        0.3675551884
 C          4.1889200566       -3.8723733216       -0.0080541124
 C          2.8456246668       -3.7994827501       -0.3644471901
 C          2.1599626904       -2.5989561682       -0.3442287000
 C          2.8497603828       -1.4667528047        0.0560771954
 N          2.4141861484       -0.1515786756        0.1432866933
 C          1.2090590825        0.2976820962       -0.3876330761
 C         -0.0011505338       -0.1773175346        0.1038210865
 C         -1.2098754146        0.2983536017       -0.3906576956
 N         -2.4162959980       -0.1501378718        0.1379817792
 C         -2.8507550270       -1.4656572768        0.0527743921
 C         -2.1612477128       -2.5970754610       -0.3503129389
 C         -2.8456634559       -3.7983459059       -0.3677952829
 C         -4.1875207892       -3.8726380438       -0.0061647171
 C         -4.8848731843       -2.7419702969        0.3718104262
 C         -4.2155349923       -1.5264306443        0.4002308453
 C         -4.6202496988       -0.1848463326        0.7202474426
 C         -5.8263836443        0.3489298205        1.1487315692
 C         -5.8783354814        1.6996625247        1.4250043409
 C         -4.7385262654        2.4879595108        1.3257244181
 C         -3.5116527733        1.9864050071        0.9119489705
 C         -2.3052054899        2.8777086973        0.9155391392
 C         -3.4849316020        0.6392892829        0.5534083590
 C         -1.2039752200        1.2295604245       -1.4512061449
 C         -2.4189254317        1.6594282602       -2.0318639959
 N         -3.3919179503        1.9987466055       -2.5338709213
 C          0.0017910562        1.6859930978       -1.9691847219
 C          1.2060666954        1.2295683836       -1.4476883214
 C          2.4223279430        1.6603626985       -2.0249525255
 N          3.3966268930        1.9998153219       -2.5242890345
 C          3.4835568669        0.6384860647        0.5557765161
 H          1.4109066410        2.3260272308        1.2313349058
 H          2.1189022326        3.3041574975       -0.0606387414
 H          2.4559003126        3.6957875186        1.6208457700
 H          4.7982838106        3.5322651586        1.5960101723
 H          6.8046484414        2.1522519311        1.7416924110
 H          6.6954846793       -0.2789931824        1.2579668642
 H          5.9322800606       -2.7938258672        0.6280924850
 H          4.6908084034       -4.8277574440       -0.0356562040
 H          2.3276701549       -4.6971597249       -0.6673877394
 H          1.1235965508       -2.5532864658       -0.6422950221
 H         -0.0024357283       -0.8807700338        0.9232402609
 H         -1.1263871824       -2.5498741913       -0.6537304233
 H         -2.3285690951       -4.6951673765       -0.6752014754
 H         -4.6887700066       -4.8283618311       -0.0329184814
 H         -5.9297474329       -2.7959451659        0.6359903355
 H         -6.6933952749       -0.2818370778        1.2672207857
 H         -6.8042169910        2.1496218148        1.7497909940
 H         -4.8003038095        3.5322896334        1.5952159541
 H         -2.1267372469        3.3056065826       -0.0719075323
 H         -2.4597311400        3.7010325364        1.6094498075
 H         -1.4129335068        2.3324932480        1.2205996329
 H          0.0030349380        2.3841038807       -2.7937753424
  60
  -95.3278774596000       0.273086523058478      !
 C          2.3154736376        2.8445328580        1.0148953528
 C          3.5111381422        1.9390553874        1.0222296954
 C          4.7275151410        2.4025093997        1.5044307227
 C          5.8542978933        1.5948022141        1.6017773469
 C          5.7994106497        0.2627861814        1.2472394903
 C          4.6031178324       -0.2334353584        0.7506513582
 C          4.1985120690       -1.5485068347        0.3356922516
 C          4.8576618452       -2.7668199347        0.2446984965
 C          4.1626641720       -3.8615072153       -0.2308888690
 C          2.8334677803       -3.7490866413       -0.6287051778
 C          2.1590591781       -2.5449999306       -0.5493686258
 C          2.8454579783       -1.4517615349       -0.0473156412
 N          2.4182308325       -0.1420887062        0.1117717227
 C          1.2112670507        0.3297461212       -0.4005841170
 C          0.0061482951       -0.1455486093        0.0999739831
 C         -1.2085900396        0.3184264766       -0.3937616014
 N         -2.4083119314       -0.1270417838        0.1467763944
 C         -2.8090427182       -1.4573831191        0.1505194911
 C         -2.0893647550       -2.5987997115       -0.1616497116
 C         -2.7441873217       -3.8149428955       -0.0950879721
 C         -4.0872249634       -3.8964997107        0.2594997518
 C         -4.8156174257       -2.7581203178        0.5443795784
 C         -4.1757722812       -1.5278844838        0.4879738979
 C         -4.6171897161       -0.1783206994        0.7116317325
 C         -5.8419143639        0.3496984966        1.0906990637
 C         -5.9303653642        1.7131082997        1.2832264168
 C         -4.8066634972        2.5198612784        1.1574438576
 C         -3.5614884597        2.0244765582        0.7925014493
 C         -2.3763126396        2.9439527997        0.7785914622
 C         -3.4994599715        0.6610331155        0.5065565200
 C         -1.2075823315        1.2335437510       -1.4691411308
 C         -2.4218196253        1.6287334394       -2.0756957412
 N         -3.3914604722        1.9322617073       -2.6062595169
 C         -0.0054664416        1.7058975654       -1.9817156742
 C          1.2030429584        1.2675764594       -1.4541092788
 C          2.4186885963        1.7206287876       -2.0149402007
 N          3.3977493489        2.0787666480       -2.4917515913
 C          3.4806586958        0.6114005107        0.5982085573
 H          1.4102219881        2.3031724761        1.2875618156
 H          2.1664282859        3.2912196829        0.0308362643
 H          2.4614847076        3.6530152470        1.7277116062
 H          4.7924979894        3.4310374672        1.8284284336
 H          6.7726503256        2.0148045162        1.9831265977
 H          6.6566959013       -0.3828959629        1.3567306645
 H          5.8936798432       -2.8501125823        0.5349493126
 H          4.6566516468       -4.8182572389       -0.3085839968
 H          2.3196659512       -4.6170850708       -1.0140827354
 H          1.1360348481       -2.4627234908       -0.8848295184
 H          0.0150797484       -0.8440720339        0.9234879940
 H         -1.0518511332       -2.5529852073       -0.4538858748
 H         -2.2000476088       -4.7186702610       -0.3253110947
 H         -4.5639625536       -4.8640455503        0.3028631327
 H         -5.8613601454       -2.8178440266        0.8037107712
 H         -6.6944471769       -0.2946166207        1.2380498375
 H         -6.8720715615        2.1595508101        1.5641807598
 H         -4.8963164593        3.5764434955        1.3637119462
 H         -1.4736720212        2.4307116424        1.1075050864
 H         -2.1994307789        3.3486907859       -0.2187949003
 H         -2.5579077318        3.7829811538        1.4468297743
 H         -0.0103722463        2.4008136438       -2.8089984351
  60
  -95.3273368895000       0.154124418408401      !
 C          1.5202056375        2.2426946407        1.6194991267
 C          2.6664958258        1.3097319295        1.8764457221
 C          3.4494079936        1.4735419450        3.0113771163
 C          4.5688070708        0.6917315782        3.2720427510
 C          4.9738144292       -0.2781200761        2.3783712505
 C          4.2102572989       -0.4781817382        1.2374652512
 C          4.3676567912       -1.3545076017        0.1095192641
 C          5.3000334891       -2.3298036146       -0.2170905356
 C          5.1410915745       -3.0250260535       -1.3992291097
 C          4.0630465268       -2.7689253680       -2.2420079566
 C          3.1211130661       -1.8047590492       -1.9356064516
 C          3.2938815085       -1.0869559045       -0.7631787911
 N          2.4910252020       -0.1016127946       -0.2066462487
 C          1.2502195164        0.2567026614       -0.7269777854
 C          0.0910734769        0.0263188972        0.0035716283
 C         -1.1576750767        0.3625174984       -0.5049109915
 N         -2.3057236076        0.0742884362        0.2256483743
 C         -2.6806928811       -1.2228189096        0.5514288928
 C         -1.9693269614       -2.4044145101        0.4187794220
 C         -2.5974736537       -3.5781530010        0.7932184005
 C         -3.9024631789       -3.5802485061        1.2772534287
 C         -4.6208534733       -2.4059930726        1.3890741871
 C         -4.0096161802       -1.2153320197        1.0209210943
 C         -4.4516053660        0.1521461624        0.9880010820
 C         -5.6426143088        0.7574502686        1.3600648240
 C         -5.7371542751        2.1295436260        1.2501005058
 C         -4.6513841474        2.8837550925        0.8224210045
 C         -3.4406693395        2.3141505813        0.4514489392
 C         -2.2859633447        3.1945564047        0.0764672089
 C         -3.3756161827        0.9222939728        0.4924159749
 C         -1.2474051493        0.9175604648       -1.7988599146
 C         -2.5090347223        1.1825681209       -2.3791407162
 N         -3.5237771167        1.3742157154       -2.8764176818
 C         -0.0932298787        1.1447461706       -2.5391843364
 C          1.1530522572        0.8188835554       -2.0159292773
 C          2.3198029915        1.0958932387       -2.7646953167
 N          3.2584339998        1.3468825334       -3.3719696190
 C          3.0409416051        0.2832250382        1.0094079233
 H          0.5657349553        1.7845822271        1.8827800602
 H          1.4833725201        2.5346170345        0.5705691239
 H          1.6353200894        3.1413065298        2.2213182802
 H          3.1828850004        2.2528650246        3.7107011376
 H          5.1376983909        0.8692515214        4.1721348608
 H          5.8650220606       -0.8612988798        2.5496153438
 H          6.1267512820       -2.5387091530        0.4444261554
 H          5.8563040239       -3.7852718442       -1.6746327108
 H          3.9564289266       -3.3372405766       -3.1535735687
 H          2.2839503256       -1.6268048404       -2.5943441903
 H          0.1647476505       -0.4210827849        0.9836715665
 H         -0.9619986338       -2.4202864185        0.0292012483
 H         -2.0632945788       -4.5122284107        0.7038755783
 H         -4.3582228507       -4.5171414647        1.5600551283
 H         -5.6383629797       -2.4090630028        1.7483730486
 H         -6.4644113257        0.1663093343        1.7328683344
 H         -6.6533659784        2.6312146299        1.5222060961
 H         -4.7428793751        3.9596044933        0.7891381441
 H         -2.2232363661        3.3208077988       -1.0052202443
 H         -2.4171832254        4.1802677948        0.5172965581
 H         -1.3420101009        2.7818369467        0.4294299124
 H         -0.1651751579        1.5685849024       -3.5303466706
  60
  -95.3272134647000       0.135253757779282      !
 C          1.4799589377        2.1748513998        1.6778905361
 C          2.6202800650        1.2311194871        1.9219917536
 C          3.3766370682        1.3508331758        3.0804854177
 C          4.4956485010        0.5662443712        3.3330268409
 C          4.9298845417       -0.3587873018        2.4061002429
 C          4.1924520358       -0.5151769577        1.2417025055
 C          4.3844274543       -1.3385760787        0.0796948513
 C          5.3398368928       -2.2829482471       -0.2700294740
 C          5.2165463018       -2.9276707841       -1.4846019900
 C          4.1491990023       -2.6541522043       -2.3352389492
 C          3.1843972044       -1.7206761918       -2.0054575510
 C          3.3233949796       -1.0491972585       -0.8014948708
 N          2.4961945721       -0.0980218968       -0.2194261640
 C          1.2533453453        0.2533635768       -0.7367522066
 C          0.0964435599        0.0100076935       -0.0059282659
 C         -1.1552502088        0.3424069352       -0.5091758042
 N         -2.3005383751        0.0689127537        0.2303876562
 C         -2.6788223907       -1.2170835838        0.5945715857
 C         -1.9691971456       -2.4036834967        0.5041571383
 C         -2.5999425672       -3.5631197303        0.9172095171
 C         -3.9063220814       -3.5474100747        1.3969724488
 C         -4.6239402971       -2.3693203066        1.4647513508
 C         -4.0096682661       -1.1928804410        1.0583782699
 C         -4.4500293267        0.1733509975        0.9809620309
 C         -5.6429439551        0.7902339329        1.3266510932
 C         -5.7349057426        2.1586747288        1.1763064848
 C         -4.6433911690        2.8990779608        0.7396607206
 C         -3.4302618767        2.3177620372        0.3953445425
 C         -2.2699049475        3.1886920249        0.0153060213
 C         -3.3696236954        0.9269541868        0.4701572063
 C         -1.2518870306        0.8912352294       -1.8056395635
 C         -2.5162291275        1.1375559736       -2.3878959532
 N         -3.5317489525        1.3130465273       -2.8896213982
 C         -0.1004770771        1.1342946394       -2.5448702055
 C          1.1500324454        0.8264318903       -2.0207374785
 C          2.3118852627        1.1389235243       -2.7629654559
 N          3.2445521104        1.4243061812       -3.3645867808
 C          3.0190449846        0.2424026068        1.0223178343
 H          0.5206091137        1.7162856848        1.9216282753
 H          1.4543024077        2.4928313133        0.6363520480
 H          1.5941691944        3.0576796181        2.3029434907
 H          3.0890956434        2.0983353613        3.8057056579
 H          5.0423311803        0.7078467795        4.2529083609
 H          5.8235435648       -0.9402152975        2.5702216134
 H          6.1569506974       -2.5067665848        0.3985091091
 H          5.9515690364       -3.6611211741       -1.7797560292
 H          4.0697100730       -3.1830779871       -3.2728530047
 H          2.3562329310       -1.5316075752       -2.6721136446
 H          0.1759299178       -0.4403495648        0.9721910051
 H         -0.9611738420       -2.4350852051        0.1177117988
 H         -2.0663498805       -4.5001567241        0.8625291620
 H         -4.3639103922       -4.4733067516        1.7111768047
 H         -5.6427127798       -2.3585945704        1.8202938982
 H         -6.4685114992        0.2108554097        1.7092848215
 H         -6.6528431252        2.6690107146        1.4252016173
 H         -4.7323252938        3.9738089074        0.6765181470
 H         -1.3295628937        2.7778529262        0.3799697304
 H         -2.1997833913        3.3014392595       -1.0675574547
 H         -2.4009777063        4.1804714838        0.4425290595
 H         -0.1773111185        1.5602797919       -3.5347588461
  60
  -95.3270276204000       0.111106946752986      !
 C          1.5615482922        2.2421770142        1.6542032039
 C          2.6430815009        1.2367645511        1.9186084377
 C          3.3709290176        1.2974696829        3.0996846739
 C          4.4390516788        0.4496636640        3.3687644943
 C          4.8513649375       -0.4815407082        2.4377650016
 C          4.1405654084       -0.5795600020        1.2506111498
 C          4.3158292037       -1.3968896384        0.0813182827
 C          5.2234164611       -2.3914398451       -0.2566246982
 C          5.0910810366       -3.0179599221       -1.4798593326
 C          4.0612951638       -2.6757094584       -2.3515224769
 C          3.1447730209       -1.6904868365       -2.0342911915
 C          3.2935866047       -1.0390588986       -0.8206399097
 N          2.5067857487       -0.0484498789       -0.2461080291
 C          1.2661741310        0.3239112778       -0.7541548964
 C          0.1137745606        0.0924456338       -0.0130800819
 C         -1.1427436240        0.4070436711       -0.5158871283
 N         -2.2785065318        0.1088932719        0.2271911328
 C         -2.6010827446       -1.1847548398        0.6193356554
 C         -1.8465159845       -2.3444830256        0.5427479415
 C         -2.4252880388       -3.5194686711        0.9864823041
 C         -3.7255685101       -3.5462396922        1.4817748276
 C         -4.4896659826       -2.3968984426        1.5321456992
 C         -3.9275741685       -1.2053609211        1.0951050341
 C         -4.4243996083        0.1397851153        0.9935316350
 C         -5.6404690274        0.7124231872        1.3342456817
 C         -5.7910890721        2.0724864154        1.1570366726
 C         -4.7330313041        2.8494762811        0.7021258903
 C         -3.4974265949        2.3132656284        0.3638107936
 C         -2.3749005872        3.2261268804       -0.0317315030
 C         -3.3791532653        0.9276130064        0.4611433537
 C         -1.2471143734        0.9441740516       -1.8167639396
 C         -2.5138214891        1.1634313081       -2.4043695220
 N         -3.5295834816        1.3214994514       -2.9115046952
 C         -0.0984704197        1.1937222053       -2.5585243209
 C          1.1559006218        0.8917941574       -2.0394795477
 C          2.3136171017        1.1997739633       -2.7898058198
 N          3.2425251819        1.4802285763       -3.3996288337
 C          3.0152488829        0.2423399777        1.0140757402
 H          0.5722897997        1.8342706379        1.8665488669
 H          1.5809164905        2.5690926681        0.6152471404
 H          1.7057518500        3.1122023970        2.2908236230
 H          3.1025416485        2.0468837077        3.8302705861
 H          4.9649142112        0.5455953249        4.3066141726
 H          5.7077342335       -1.1125295951        2.6171147809
 H          6.0102465495       -2.6683271681        0.4281817149
 H          5.7884019423       -3.7911130930       -1.7650871027
 H          3.9723011733       -3.1914839347       -3.2956427518
 H          2.3449821709       -1.4483427280       -2.7180534704
 H          0.1997461891       -0.3466111428        0.9696165588
 H         -0.8432331533       -2.3460297840        0.1430585858
 H         -1.8549000442       -4.4351673815        0.9426489018
 H         -4.1417764216       -4.4831638641        1.8198464745
 H         -5.5047061805       -2.4199778738        1.8975912954
 H         -6.4385213913        0.1063937419        1.7337318003
 H         -6.7290194054        2.5482265046        1.4001154405
 H         -4.8672596829        3.9181544438        0.6193759605
 H         -2.3217602050        3.3385885840       -1.1153669123
 H         -2.5386578337        4.2134744631        0.3946508838
 H         -1.4153542611        2.8524516884        0.3228597921
 H         -0.1809072288        1.6139265961       -3.5504693418
