98
 energy: -152.998781455928 gnorm: 0.000099247324 xtb: 6.7.1 (edcfbbe)
C           -1.99740099970660       -6.35457619436298        1.70794954110623
O           -2.88649713879273       -5.92904157418360        0.70089700419248
C           -3.17294632995395       -4.60325509336775        0.60122863469122
C           -4.02320619008866       -4.23678949485654       -0.44544092227553
C           -4.35039158667241       -2.91697314263834       -0.66036142545793
C           -3.84501568227102       -1.91778035627556        0.17435742437563
N           -4.11886907760253       -0.56626465832172       -0.07371405912677
C           -5.37881722886415       -0.19205014811762       -0.54721423854208
C           -5.51392021997286        0.80824886127387       -1.50707549683178
C           -6.76040858851195        1.18150077225039       -1.97425097340532
C           -7.90458553953232        0.55148115351438       -1.49564540234985
O           -9.17777015018827        0.83527265470930       -1.88650376546940
C           -9.37792110271901        1.84901826310808       -2.84085338126190
C           -7.77096601189792       -0.45866280179905       -0.53922794479871
C           -6.53048431943868       -0.82311876483470       -0.07003109052121
C           -3.10456295682553        0.37310311876022        0.10147601794193
C           -3.40411893804640        1.69230524128256        0.48880807992314
C           -2.40004005497352        2.62187143091709        0.72390101236016
C           -1.08059273694119        2.22256759141574        0.59132515229858
C           -0.76892155573226        0.89975799346363        0.16093422018139
C           -1.77959718717593       -0.01493420535716       -0.09477236226316
C            0.64738119742398        0.80257866864382        0.13250038657207
C            1.51136306925342       -0.25476889172815       -0.11490096531277
C            2.87533595528367       -0.07086019968350        0.10167447470253
N            3.73246682776199       -1.16294643266822       -0.05297851036740
C            3.24604254583869       -2.43517981044581        0.27317449886239
C            2.42944220796274       -2.60515142499396        1.39536336646153
C            1.88340484212322       -3.83406767542236        1.68317006429171
C            2.14269959099557       -4.93775469045491        0.86722542168259
O            1.52383127817008       -6.10009703472833        1.22807802974827
C            1.75063425645889       -7.25079409786428        0.45045249096541
C            2.98466583523194       -4.78324913233768       -0.22805392068034
C            3.52638559649881       -3.54316741361190       -0.52051526719748
C            5.02220588841362       -1.00706907601154       -0.55940076472203
C            5.30086691324707       -0.03040452050990       -1.51306296674234
C            6.57890076875683        0.13098801848332       -2.01433976581057
C            7.61122508854759       -0.69287669612149       -1.57802747827607
O            8.90287357392232       -0.62658328387300       -2.00659852956537
C            9.24604193272311        0.35460145882463       -2.95410780600095
C            7.33364464689545       -1.67767501026095       -0.62666580102602
C            6.06321922517945       -1.83077843605462       -0.12212682775003
C            3.36701677797247        1.17964868968141        0.51411543111803
C            2.51408700100626        2.25316765455032        0.73132456619496
C            1.15538071275752        2.06850124673119        0.54243178289224
N            0.09375248007551        2.92022127351894        0.78563150934088
C            0.17894683552835        4.22873253358973        1.25509059750374
C           -0.54136351738787        4.56865203193436        2.41592198518056
C           -0.43664713965044        5.82690880233725        2.96122570504279
C            0.36492503830327        6.79105658491040        2.35740689971663
C            1.07082905808885        6.50416488896300        1.17232805925118
C            1.84878594720406        7.48216729413836        0.52818803361693
C            2.49071464221726        7.21151725721399       -0.66864165090700
C            2.35757694528590        5.96578031121920       -1.25689140006749
C            1.60893109140298        4.97342108643491       -0.63866870598063
C            0.97761819229908        5.20555210252415        0.59075148066832
C           -3.03178708916170       -2.29103107378752        1.24291805664520
C           -2.68894133212358       -3.61340598214918        1.45148165990853
H           -1.92559097704234       -7.43527652064293        1.59522034143088
H           -2.38148141713206       -6.12388994625192        2.70664483174149
H           -1.00396641104332       -5.91188573395771        1.58598047497483
H           -4.40107343253414       -5.01163333150424       -1.09327294795566
H           -4.98735975950264       -2.64708175611735       -1.48927664983139
H           -4.63138463955948        1.29334775355413       -1.89608835130399
H           -6.82281213109927        1.95919751111615       -2.71873483602337
H          -10.45510788456047        1.90520605262176       -2.98939698773246
H           -8.89451810005412        1.60679287552943       -3.79296806044060
H           -9.01164809717035        2.81672391575837       -2.48304095160144
H           -8.66466800348767       -0.93816350602499       -0.17323234085453
H           -6.44084687890670       -1.59746317820074        0.67697221045227
H           -4.43477272734086        1.97735613295774        0.62969899776622
H           -2.65443668317100        3.62701403516556        1.02159072014098
H           -1.54046297242444       -1.00811008844274       -0.44059703345790
H            1.12842244744356       -1.20621363113960       -0.44911039286103
H            2.22203952875482       -1.75945940754269        2.03293056197568
H            1.24914650504267       -3.96865430722746        2.54498804678942
H            1.17657194990164       -8.04499805733751        0.92514244526609
H            1.39952046766692       -7.11573316252889       -0.57760416440996
H            2.80968020680782       -7.52683579255345        0.44097009787788
H            3.21563678211325       -5.61477446031723       -0.87468548871557
H            4.16092745853728       -3.43056494879201       -1.38700493259860
H            4.50483628213663        0.60570594766140       -1.86940198690207
H            6.75251147375132        0.89851680828765       -2.75166559654426
H            9.06076754747569        1.36418317926260       -2.57330008864797
H            8.70139435853762        0.21493051671079       -3.89372368822005
H           10.31232711440897        0.22902944318402       -3.13539988260924
H            8.14216072689016       -2.30742518760719       -0.29126449700426
H            5.86589744144415       -2.58620066966161        0.62362584965228
H            4.42388658447152        1.29294743946613        0.69782266862042
H            2.90651603228383        3.19919636699317        1.07018586223820
H           -1.12408185221909        3.80266901964538        2.90638423688136
H           -0.96786889987949        6.06373283258936        3.87165736889815
H            0.44461341845827        7.77815112580415        2.78752290985165
H            1.92847187715328        8.46096081185604        0.97903643783025
H            3.08626219261755        7.97666756245941       -1.14586775650697
H            2.84031470292463        5.75614114916825       -2.20078305883029
H            1.50843801563164        4.01179586521165       -1.12033660265255
H           -2.65476742949407       -1.53264823077570        1.91244109415772
H           -2.04415942975741       -3.85872510811391        2.27998179055144
