98
 energy: -153.079311180511 gnorm: 0.000063212009 xtb: 6.7.1 (edcfbbe)
C          -10.21430385656119        0.94002136180133        1.07318077033652
O           -9.00184711731711        1.15399162283237        1.75001068082293
C           -7.83707974161044        0.82422513977076        1.11505226342235
C           -6.66344658752288        1.06011537417964        1.83235119580015
C           -5.43476106128134        0.75774021563138        1.29144160974177
C           -5.33687313619787        0.21832768932715        0.00656010366498
N           -4.08829410972880       -0.08167474160210       -0.54667828198007
C           -3.92821749176737       -1.20767169193941       -1.36050308579963
C           -3.06335150283076       -1.17765856264989       -2.45705712342108
C           -2.90651765823862       -2.28711308152144       -3.25591899691911
C           -3.61530685533156       -3.46078823228164       -2.99567478362172
O           -3.39137340250514       -4.49780361642016       -3.85794817637999
C           -4.07634589976839       -5.70513752816887       -3.64105696437520
C           -4.47938311174626       -3.49623384952246       -1.90805042957027
C           -4.62547827346464       -2.38346220677266       -1.09914417048754
C           -2.99066038653993        0.74957135943526       -0.28001544750454
C           -3.17061404292845        2.14086570970995       -0.23772077956300
C           -2.12451841668699        2.99966628858123        0.02351633288882
C           -0.86822278585258        2.45219230902594        0.24159318135403
C           -0.66626749611463        1.05452726543038        0.17984751101663
C           -1.73041380874479        0.20244575082387       -0.07137949718975
C            0.73220203663550        0.83524783577228        0.42225621306514
C            1.51375093873499       -0.30755649844892        0.49721353553546
C            2.86678016130623       -0.17501265310190        0.78411771981807
N            3.68761462724662       -1.30874521075445        0.87434760104134
C            4.98535825807209       -1.26705575223967        0.35571823435547
C            6.03438508515599       -1.93411421665745        0.99271902904316
C            7.30854864973072       -1.89106068027448        0.47470929412091
C            7.58286502313138       -1.17094319843751       -0.68900962724368
O            8.88250070282522       -1.19235429171942       -1.11247361413651
C            9.21491142136701       -0.48503472188355       -2.28004286909985
C            6.54565786681052       -0.49713901425258       -1.32204852429756
C            5.26337283603465       -0.55255314928427       -0.80607521705878
C            3.20250151081867       -2.47571304881436        1.47303398605532
C            2.33836061546929       -2.40861292256038        2.56849299059159
C            1.86235480368944       -3.55817533720702        3.15632425480479
C            2.24118324765823       -4.81396894398241        2.67971322505145
O            1.71848375339760       -5.88820606062263        3.34432344262858
C            2.07204832318506       -7.17691015458912        2.91055313490997
C            3.10211416722399       -4.88745256513825        1.59156871701296
C            3.56850150717950       -3.73013967597113        0.99407615005482
C            3.41993561085024        1.09701586851372        0.99892090338301
C            2.65941561572394        2.24303550775849        0.91263994693287
C            1.31126266021260        2.11112515977124        0.60867064129904
N            0.33613733742912        3.08098842106196        0.48359074595537
C            0.51109829683311        4.46062468964703        0.67311120238447
C           -0.22341388057880        5.10846204274924        1.63793351282193
C           -0.05388719468852        6.47915405526588        1.86498748933021
C            0.85846574696787        7.19147945920689        1.13823826397468
C            1.61733634645907        6.56679346019382        0.12687986652374
C            2.54770031779826        7.28834519359728       -0.65073720808884
C            3.24523662823627        6.67921876596540       -1.65507716797128
C            3.03117455284936        5.32204672099956       -1.93803087615841
C            2.14691019455237        4.58991203452972       -1.19604788021128
C            1.43374944568962        5.18243975439325       -0.13259774904295
C           -6.50959943528410       -0.00772764854577       -0.70808901611611
C           -7.74674015658708        0.28365088202007       -0.16198883238421
H          -10.36329977485186       -0.11907669287584        0.83685720598948
H          -10.27138132096092        1.52838392635463        0.15109910261996
H          -10.99611126312507        1.26812013486459        1.75664270945050
H           -6.74426382615205        1.47589983533838        2.82418940954196
H           -4.53557112990819        0.93606115899410        1.86185706920571
H           -2.51541072098341       -0.27378301629633       -2.67720477978537
H           -2.24034998687786       -2.26818985131475       -4.10385895308432
H           -3.75014061009736       -6.37654865954224       -4.43407386186436
H           -5.16149196262450       -5.57099887358050       -3.70620340963697
H           -3.82327407834565       -6.14413733374760       -2.67006054597081
H           -5.04068996624784       -4.38614122122348       -1.67014321960966
H           -5.29212241066581       -2.42802818066727       -0.25061317001206
H           -4.15709721532440        2.54043549111766       -0.41966226642434
H           -2.27906633822914        4.06797151725752        0.04099025445679
H           -1.58439076637578       -0.86614732608275       -0.10994799739469
H            1.07978049391234       -1.28357274847480        0.34309955911334
H            5.83963694690491       -2.48564244185404        1.90025592332578
H            8.12169151084965       -2.40466690953783        0.96271299610519
H           10.28334115595946       -0.63854429678142       -2.42443535666807
H            8.67451579096038       -0.86860909605982       -3.15213532003246
H            9.01579026921709        0.58670700668291       -2.17307920131008
H            6.71669372696649        0.06906132842604       -2.22413716065837
H            4.46412285231492       -0.03221784761423       -1.31289332375832
H            2.04458969640257       -1.44458276828946        2.95581699556640
H            1.19567230689895       -3.51098551750707        4.00273511038185
H            1.55391153227793       -7.86541007395351        3.57657159847340
H            3.15155884585867       -7.34614087973217        2.98603046587594
H            1.74797491827890       -7.35933247888546        1.88031794713159
H            3.41413385780291       -5.83869767569602        1.18995534887255
H            4.22906514599904       -3.80213865132852        0.14272874733456
H            4.46939386756274        1.16973432561063        1.24225227488879
H            3.10134047587639        3.21227826325701        1.08730089929772
H           -0.92557199754113        4.54629465206859        2.23592391627036
H           -0.64071580503357        6.96169695431488        2.63237447804246
H            1.00671021101723        8.24565152337071        1.32152397417544
H            2.69326296145696        8.33774635047826       -0.43759459513938
H            3.95578219733131        7.23957098085275       -2.24485642280271
H            3.56939246451122        4.85803543860242       -2.75136655660640
H            1.98048978084431        3.54871597510479       -1.42744409090332
H           -6.45251326423333       -0.41731581514298       -1.70583126795276
H           -8.63038945103054        0.09132781092091       -0.75002291763106
