98
 energy: -153.081094751222 gnorm: 0.000050526022 xtb: 6.7.1 (edcfbbe)
C           -1.99986591316342       -6.36065717612373        1.68317686898522
O           -2.86491492197553       -5.93595591392832        0.65659228424756
C           -3.15743546872413       -4.60653892424374        0.56173395033476
C           -3.98224456742535       -4.23444509858516       -0.50108931145455
C           -4.30884600973919       -2.91343377229520       -0.71300642843006
C           -3.83370479873697       -1.91944109816133        0.14366719587334
N           -4.11205225813499       -0.56469793684183       -0.09667344071850
C           -5.35816146172525       -0.18966476685330       -0.60650890468164
C           -5.47342594099454        0.82121794529048       -1.55605044749009
C           -6.70871961243976        1.19630996977836       -2.05347320313106
C           -7.86146026764037        0.55373159723534       -1.61885004396097
O           -9.12915117201850        0.83772189238276       -2.04415796964777
C           -9.30015664299103        1.85237299938732       -3.00080298239988
C           -7.74965987046956       -0.46713053180017       -0.67355716113668
C           -6.52104074228075       -0.82984623916758       -0.17134955247948
C           -3.09484605229298        0.37772947790241        0.09276508050999
C           -3.39387269303312        1.68316475038492        0.51492563100009
C           -2.40570606568731        2.61622403249057        0.75991662598609
C           -1.08127238560662        2.22496129483578        0.62096266360650
C           -0.77118242620677        0.91989551501578        0.18100500480935
C           -1.77009732176381        0.00862230088041       -0.10824116523469
C            0.65736001170381        0.81680408277631        0.17955013282790
C            1.51320975485544       -0.24023729399815       -0.07174419335932
C            2.87333705421270       -0.06898278066125        0.15185662211510
N            3.73652534356747       -1.16390658411555        0.00007140965360
C            3.25308060878194       -2.43592013670655        0.33713407709395
C            2.45445966172064       -2.60520857148007        1.47131785827316
C            1.91430376357837       -3.83375750402556        1.77197827181288
C            2.16521514988650       -4.94032973849617        0.95929392673143
O            1.55643022628651       -6.10608492174484        1.33713013113171
C            1.76509024849626       -7.25347480920405        0.55140378910235
C            2.98856635570866       -4.78746812904772       -0.14909618731453
C            3.52018757996400       -3.54666152830843       -0.45625008436993
C            5.01162579443350       -1.00832868326310       -0.54500999719719
C            5.26626533805050       -0.03830837537712       -1.51030027849191
C            6.53272308096964        0.12511994339874       -2.04253606599191
C            7.57616554404198       -0.69317404423014       -1.62791508098337
O            8.86178641677252       -0.62487378689286       -2.08821819983702
C            9.17218667957785        0.34375523059204       -3.05737829800900
C            7.32397951057665       -1.67228941461975       -0.66579215339463
C            6.06640669360829       -1.82448998134693       -0.12853078113461
C            3.35882578429140        1.17712601321044        0.57697069234801
C            2.51801576447081        2.25024823854115        0.79559190703005
C            1.15461906265534        2.06857891858966        0.60271671493634
N            0.09278826709982        2.92440830350796        0.83628519665358
C            0.18245345883886        4.22850097820558        1.34519238931244
C           -0.45902137977904        4.54419418100406        2.51980867260362
C           -0.36926298712003        5.83241438278693        3.05947677716630
C            0.37227156685243        6.79395636937254        2.43215977259710
C            1.03110329537175        6.51419311151315        1.21697439584160
C            1.78304950730100        7.49826658442859        0.54099477123195
C            2.38147592959972        7.22515323893504       -0.65637488112204
C            2.24181431337247        5.95725141365449       -1.23992433868884
C            1.53132879761576        4.97646500280645       -0.60590827027388
C            0.92548622449679        5.21842273644245        0.64498014299560
C           -3.04662113490911       -2.30021952117656        1.22716009951369
C           -2.69932270418602       -3.62286473565995        1.43085153632431
H           -1.91182654400574       -7.43950935325525        1.56296859307257
H           -2.41370470978465       -6.14392625974135        2.67347709072647
H           -1.00836095705688       -5.90560494889895        1.59417193458485
H           -4.34151873201808       -5.00468104617100       -1.16514811791870
H           -4.92869040170919       -2.63999347511436       -1.55386121672972
H           -4.58415672323390        1.31969333056632       -1.91275710914165
H           -6.75291139030427        1.98560810145418       -2.78746535549548
H          -10.37184579953847        1.90539048256428       -3.18691767199371
H           -8.78298888336755        1.61599061046208       -3.93693691716384
H           -8.95049513278432        2.82137642294151       -2.62859091333121
H           -8.65038104075835       -0.95825390960379       -0.34112118755743
H           -6.44920733186262       -1.61630940597171        0.56490561209887
H           -4.42814980917179        1.95748453477161        0.65948053099994
H           -2.66439800632135        3.61695541157920        1.07208153575737
H           -1.52066513702695       -0.98002641085732       -0.46040116395916
H            1.12428380995058       -1.19142815821791       -0.40041435739717
H            2.24999746048282       -1.75722938923242        2.10741131513144
H            1.29065555278757       -3.96511778734601        2.64225562053886
H            1.20033523559605       -8.04895820199026        1.03530041948214
H            1.39236539915332       -7.11488571637548       -0.46877783144731
H            2.82351372347550       -7.53131644672523        0.51781022005702
H            3.21347326713833       -5.62120493598049       -0.79536059503814
H            4.14270644382343       -3.43742920193867       -1.33201146856881
H            4.46173671648156        0.59632098068270       -1.85130388951889
H            6.68600461115207        0.89031038813385       -2.78726892986916
H            8.99378933332168        1.35846599853337       -2.68553310337992
H            8.60095192392693        0.19016890410808       -3.97926899470825
H           10.23340221646818        0.22083313805814       -3.26870200862739
H            8.14119187106355       -2.29984488020246       -0.34728644578698
H            5.88876766434538       -2.57862168857636        0.62349869102940
H            4.41828415766101        1.28787894143606        0.75368686302718
H            2.91423328295372        3.19534213575864        1.13534050456116
H           -1.02206611322989        3.78185115386593        3.03781237791939
H           -0.87942079518175        6.05109671626483        3.98584469676772
H            0.45914202140305        7.78492671521562        2.85320419537885
H            1.87129280344188        8.47750874586439        0.98955272401519
H            2.95504174666529        7.98499512870956       -1.16667343157995
H            2.69830350401934        5.76098383861921       -2.19891885825470
H            1.42027572563381        4.00671452629065       -1.06708428992198
H           -2.68410209373530       -1.54674355068871        1.91070810632218
H           -2.07012522277175       -3.87119233294821        2.27068523385672
