  104
       -164.28631672
 O         -0.0062588313        6.4310185765       -0.0009664318
 C          0.0011791717        5.2188584788        0.0004329529
 C          1.1794504791        4.3167982804       -0.0191142139
 C          2.5255372236        4.6244196396       -0.0414370380
 C          3.4438654302        3.5840499459       -0.0437697953
 C          3.0197690396        2.2576949567       -0.0268856878
 N          3.9694721538        1.2137574392       -0.0154601389
 C          4.8062221728        1.0377123722       -1.1131317467
 C          4.6560748030        1.8304934653       -2.2544527869
 C          5.4862851645        1.6692862399       -3.3449567243
 C          6.4792792357        0.7049590518       -3.3303307600
 C          6.6070006676       -0.1105734564       -2.2223523639
 C          5.7797671946        0.0363147399       -1.1184927160
 C          5.9404639478       -0.9275804298        0.0293177475
 C          5.7833557362       -2.3558256816       -0.4565622627
 C          4.6773531312       -2.9431644316       -1.0290429788
 C          4.7546527460       -4.2784686240       -1.4023408526
 C          5.9190858030       -5.0041285922       -1.2030003023
 C          7.0346719391       -4.4164364179       -0.6276691548
 C          6.9634219753       -3.0847346215       -0.2541406539
 C          7.9493244783       -2.2064024532        0.3581990500
 C          9.2565820399       -2.4372642497        0.7529043452
 C          9.9727710946       -1.3932892670        1.3167785416
 C          9.3968873433       -0.1431670514        1.4844561831
 C          8.0862637786        0.0937258951        1.0913886200
 C          7.3714172920       -0.9407665723        0.5302658482
 C          4.9881324638       -0.6447733616        1.1633493867
 C          5.0581911802       -1.4417685420        2.2965540542
 C          4.2416618705       -1.2143421973        3.3878169205
 C          3.3539671148       -0.1528920625        3.3537670779
 C          3.2709706233        0.6499637966        2.2343378460
 C          4.0657569678        0.4028006777        1.1110030155
 C          1.6552902610        1.9447615398       -0.0125580779
 C          0.7454843671        2.9770081215       -0.0079494167
 C         -0.7167297809        2.9682364959        0.0081224442
 C         -1.6143654564        1.9251104441        0.0146322566
 C         -2.9819034776        2.2224832542        0.0359435719
 N         -3.9227901313        1.1695117148        0.0288996688
 C         -4.0377132353        0.3723991327       -1.1050154327
 C         -3.2451608355        0.6178361429       -2.2301100306
 C         -3.3485017962       -0.1717318256       -3.3573115826
 C         -4.2538591823       -1.2178769152       -3.3968003922
 C         -5.0663774372       -1.4443811973       -2.3022352426
 C         -4.9756966231       -0.6612829935       -1.1610129027
 C         -5.9300326696       -0.9364729393       -0.0269292793
 C         -5.8544017912       -2.3885189975        0.4027446059
 C         -4.7773335400       -3.0648591380        0.9303093815
 C         -4.9320954075       -4.4055392337        1.2575889219
 C         -6.1439612153       -5.0487769966        1.0583427275
 C         -7.2305727138       -4.3716978475        0.5274545657
 C         -7.0816679236       -3.0345529797        0.1987929442
 C         -8.0197255588       -2.0757387627       -0.3659786255
 C         -9.3451650425       -2.2105107494       -0.7443259086
 C        -10.0016957307       -1.1060803265       -1.2638066836
 C         -9.3493917610        0.1093022459       -1.4045238450
 C         -8.0206771015        0.2502707478       -1.0264369448
 C         -7.3652088768       -0.8444032169       -0.5087509499
 C         -5.7083685960       -0.0249070995        1.1535046269
 C         -6.4969874387       -0.2007978274        2.2810609048
 C         -6.3231279234        0.5785673077        3.4087408228
 C         -5.3253041002        1.5380223429        3.4169681154
 C         -4.5324210279        1.7272033463        2.3034507672
 C         -4.7265256783        0.9680831392        1.1459811677
 C         -3.4218724016        3.5432312600        0.0589238722
 C         -2.5159864513        4.5945841403        0.0522431661
 C         -1.1666514279        4.3025911992        0.0220499807
 H          2.8507206692        5.6533810690       -0.0460635185
 H          4.5031721089        3.7931512353       -0.0535475060
 H          3.8756018124        2.5742174247       -2.2927022607
 H          5.3504023776        2.2995919767       -4.2109527777
 H          7.1353913551        0.5792432154       -4.1773261841
 H          7.3595851132       -0.8850146293       -2.2055566518
 H          3.7700727857       -2.3772781196       -1.1859231903
 H          3.8979910785       -4.7568580750       -1.8538031237
 H          5.9565738325       -6.0416238183       -1.5011630086
 H          7.9395018349       -4.9859520095       -0.4751635375
 H          9.7094379031       -3.4093208502        0.6248120302
 H         10.9937383677       -1.5548454685        1.6302219237
 H          9.9742113249        0.6555496776        1.9260656665
 H          7.6371168916        1.0677848587        1.2232816221
 H          5.7728267732       -2.2512426939        2.3166311641
 H          4.3078736904       -1.8473761636        4.2588504899
 H          2.7243902063        0.0598617526        4.2048177343
 H          2.5891602245        1.4858487873        2.2377166080
 H          1.3429335266        0.9115941507       -0.0051332735
 H         -1.2901238864        0.8956703792        0.0057362757
 H         -2.5491148577        1.4418834164       -2.2286358414
 H         -2.7206643281        0.0394537427       -4.2100630493
 H         -4.3365926272       -1.8397920428       -4.2744434686
 H         -5.7948221426       -2.2413587072       -2.3263666284
 H         -3.8330949145       -2.5632506075        1.0870273962
 H         -4.0987768947       -4.9532922669        1.6722638694
 H         -6.2416241759       -6.0919837630        1.3208585119
 H         -8.1723760782       -4.8771879410        0.3744668426
 H         -9.8575488368       -3.1551533674       -0.6371853120
 H        -11.0357657264       -1.1924963655       -1.5640024449
 H         -9.8808582438        0.9561906882       -1.8127708059
 H         -7.5121432274        1.1974382093       -1.1369730991
 H         -7.2572471683       -0.9677517876        2.2667521589
 H         -6.9494974358        0.4303103617        4.2743952116
 H         -5.1565080601        2.1421755232        4.2957050431
 H         -3.7478375235        2.4671545920        2.3341258825
 H         -4.4835661080        3.7390784352        0.0787013217
 H         -2.8530559395        5.6196524093        0.0607386785
