126
 energy: -186.545935915149 gnorm: 0.000187733587 xtb: 6.7.1 (edcfbbe)
C            1.92534401032718       10.84617687972261       -3.35215995188468
C            1.45145090985405        9.77526232652376       -2.41565715935980
C            1.56738586221895        8.43283235174934       -2.79567376616508
C            1.15174555350018        7.40018963392812       -1.98086818612729
C            0.60904116165689        7.73037030142703       -0.74630880645909
C            0.47485073387929        9.07978711575068       -0.34416212436356
C            0.89997533784956       10.09750115246261       -1.18584475064677
C           -0.12759066640041        9.05283748980822        0.96080517885785
C           -0.49143758467367       10.03474745021006        1.87091251687973
C           -1.04007345181633        9.66284440116291        3.08781579326664
C           -1.44948949000052       10.69409651854131        4.09643341243706
C           -1.20591302838554        8.30602332696722        3.38966336629150
C           -0.85370495106742        7.30824122988287        2.50451210643437
C           -0.32758126777532        7.68873042230633        1.27692179586676
N            0.10990486626555        6.90715702037933        0.23488430959040
C            0.06689126436650        5.49982752800474        0.17762450112518
C            1.26425409253807        4.78471970892476        0.15938677376221
C            1.25675870395391        3.41204320484910        0.11177910386513
C            0.03823744946458        2.71612810725208        0.08045846508334
C            0.01586399556932        1.28402854430847        0.04137359851485
N           -1.13887609544299        0.63779560161785        0.00094930661320
C           -1.14781598205765       -0.68483489175489       -0.03800136459387
C           -2.39124415695516       -1.39607830801973       -0.07791065503527
C           -2.41176642498912       -2.79904085550387       -0.11011994962945
C           -3.61019230146176       -3.46857029620300       -0.15628011258559
C           -4.81486906509079       -2.76566533279615       -0.17194686337650
N           -6.02603636106404       -3.48385117076581       -0.22486566852432
C           -6.92741172712713       -3.47809574583747       -1.26209023061391
C           -6.85668302984930       -2.83116549419318       -2.48888329500282
C           -7.90506400519662       -3.00522548330618       -3.36853880692928
C           -9.00955068833793       -3.80883827796350       -3.06218837837727
C          -10.11564747579190       -3.94890396365374       -4.06486089973383
C           -9.06169376674525       -4.47172710779475       -1.84646062208492
C           -8.02141328902143       -4.31558135095376       -0.94188470094320
C           -7.74530959482004       -4.85906503694017        0.36003671184881
C           -8.42386431264487       -5.72757352044374        1.20278180454697
C           -7.86736045310101       -6.05732173635126        2.42831982029871
C           -8.56760003036881       -6.99539965687751        3.36540459674150
C           -6.63551904587618       -5.50780861640413        2.80324183590366
C           -5.93922423155309       -4.64040294333972        1.98727688453988
C           -6.49812479178186       -4.32268628108873        0.75668301891857
C           -4.82106916831321       -1.36350374430869       -0.11119700390175
C           -6.11437946010915       -0.60694103904128       -0.05394340024840
C           -3.61149602508784       -0.70319539503116       -0.07244768469436
N            0.02224826825044       -1.39738166949024       -0.04545595674059
C            1.15121970959086       -0.71426667055591        0.00555611012170
C            2.41047432172563       -1.45941140234339        0.00968106612584
C            2.40491639085138       -2.85206759509783       -0.03632393254708
C            3.59828172634212       -3.54038765297384       -0.03961539417367
C            4.80888818258782       -2.85331374182792        0.00446985054579
N            6.00896209604477       -3.58660430911822       -0.00511451345497
C            6.40937625966966       -4.47503487315984        0.96863647005150
C            5.77478862410695       -4.83419850815671        2.14911339046774
C            6.41241233901141       -5.74164702652958        2.96995411551011
C            7.65961820111873       -6.28980153233566        2.64880578887656
C            8.29283530830832       -7.27266220643091        3.58826562000287
C            8.29205010204036       -5.91709835766868        1.47489251578595
C            7.67316042262019       -5.00767006787067        0.62792057445154
C            8.03609033751155       -4.41589413583618       -0.63029861449758
C            9.12920877721015       -4.55391852023105       -1.47476556931549
C            9.16139774701292       -3.84648792829083       -2.66450379034623
C           10.32629828165512       -3.96467991695442       -3.60181902863960
C            8.08701723971103       -3.01821682929174       -3.00833063720545
C            6.98776717447582       -2.86180387729080       -2.18905041975440
C            6.97606681016162       -3.55075829562666       -0.98429990105898
C            4.83224293603923       -1.45523326042197        0.08190542237813
C            6.12536744327464       -0.70910154629259        0.20747101613727
C            3.62399731095399       -0.77991477242343        0.07371791306731
N            1.20497819313648        0.60367841233062        0.05312769306008
C           -1.15791369684658        3.45007044790051        0.07624892047042
C           -1.16383142341753        4.82798348606584        0.11684393479662
C           -2.45082975327675        5.59542345538942        0.06246478714087
H            1.39421480379739       10.78395128123688       -4.30150564685692
H            2.98850032140070       10.72706037067913       -3.55917516863585
H            1.76357773613719       11.83401560953754       -2.92845298994313
H            1.99563559944348        8.20408184687282       -3.76101574599009
H            1.24173045418532        6.36934021097789       -2.28901764373252
H            0.79997339305175       11.12986724092880       -0.88403594613867
H           -0.34296284301270       11.07796088488072        1.63320185051840
H           -1.25114291559624       11.69797913599328        3.72986411449480
H           -2.51319519385898       10.60895081302774        4.31709603583813
H           -0.90532133340603       10.55103360896176        5.02950587528945
H           -1.61915049605129        8.03715873813851        4.35130259471985
H           -0.96730508696263        6.26547385993211        2.76099723556945
H            2.19637829249492        5.33077247299570        0.19378485418955
H            2.17685271666806        2.84964770431032        0.10334833778355
H           -1.47487058667120       -3.33302922506765       -0.10381527762729
H           -3.63797928560706       -4.54844893579232       -0.19122821061342
H           -6.00113148959494       -2.22598724171294       -2.74929365954542
H           -7.87563214854890       -2.51156808040798       -4.32938736520444
H           -9.73206527929153       -4.35448899046638       -5.00058459479488
H          -10.89571907009366       -4.60922958489111       -3.69479291502257
H          -10.55767789811552       -2.97682787891095       -4.28183680098304
H           -9.90045664070016       -5.10829242174298       -1.60543083290549
H           -9.37657440428788       -6.14050351663573        0.90497242437127
H           -8.76327990253980       -6.50553723892369        4.31878694748964
H           -7.94671336154283       -7.86875037717738        3.56320753688220
H           -9.51325619565463       -7.33042736383383        2.94707034964751
H           -6.22213533507405       -5.77416112328000        3.76540313098197
H           -4.99270161213894       -4.21947548933636        2.29156613113358
H           -6.81562949527340       -1.09627840387921        0.62093552219057
H           -6.58312775677609       -0.55801896649642       -1.03673494400103
H           -5.94191321561255        0.40847062525186        0.29338581217512
H           -3.58287888905508        0.37469185736288       -0.02303778080897
H            1.46063390124196       -3.37145647889424       -0.07585910964173
H            3.61240401300576       -4.61970435893875       -0.08550478836839
H            4.81589959749971       -4.41510148266292        2.41548501525702
H            5.93828546191819       -6.04087256213541        3.89370088988778
H            7.65439118073305       -8.14713453180947        3.71077825758430
H            8.43292185942165       -6.82414430526212        4.57128935098903
H            9.26004899794043       -7.59987901786337        3.21550427206011
H            9.25801226406062       -6.32684138572154        1.21838900717758
H            9.94226673579856       -5.21243447646329       -1.20637374415936
H           11.07220173046182       -4.65190417561342       -3.21086331457488
H           10.79488318044583       -2.99225771424659       -3.75087068023308
H            9.99686919052869       -4.32666408271571       -4.57525047667495
H            8.12160407257027       -2.49070633215276       -3.95088944647949
H            6.15593171386792       -2.23923260133494       -2.48349363525945
H            6.81865437985094       -1.24728382892777        0.85200773719654
H            6.60435509357911       -0.59049144681939       -0.76428059390730
H            5.95012165087034        0.27962751347611        0.62367658621467
H            3.60453417139261        0.29787479310985        0.13228471664024
H           -2.08798728105613        2.90450839287737        0.02707772541879
H           -2.71798685495935        5.98159577975997        1.04609997477684
H           -3.25752117103270        4.95451038894003       -0.28383009900393
H           -2.36204159096070        6.44626739518387       -0.61197536915552
