126
 energy: -186.545921740495 gnorm: 0.000155123626 xtb: 6.7.1 (edcfbbe)
C            5.12708529101938        9.80300610217789        3.26137789727052
C            4.33753395324207        8.91663791275810        2.34519849654802
C            4.06902709221364        7.59812137324315        2.73113916207975
C            3.35364989365650        6.73008982325687        1.93245414718685
C            2.90395950950047        7.20107455074897        0.70585320188258
C            3.14003879631647        8.53766645059526        0.30774372151839
C            3.86287106658301        9.38816785504542        1.13176379478400
C            2.49512953847443        8.69831235629082       -0.96693087346601
C            2.36999128291694        9.75782347879978       -1.85390374556211
C            1.66319512907861        9.57678314687148       -3.03202535444068
C            1.50162744386384       10.69839200448159       -4.01403438267251
C            1.09195644117392        8.33054018950980       -3.31576142303405
C            1.20193442579549        7.25871127187724       -2.45429835240447
C            1.90236470379237        7.45061191922999       -1.27095756094314
N            2.16916111361626        6.55719373744957       -0.26061216001039
C            1.74681574869861        5.21357921203992       -0.22567563916983
C            0.38178777869446        4.93364859141472       -0.15957748339309
C           -0.06364818517025        3.63516651412607       -0.11725533325650
C            0.85625408275354        2.57512960215924       -0.13855775384896
C            0.40646278335370        1.21610170412070       -0.08028337979773
N            1.28388592422014        0.22431697170729       -0.09424109936410
C            0.85851029485929       -1.02626613978100       -0.02019373312522
C            1.79857307813438       -2.10802363942449       -0.02181035132271
C            1.35800782460963       -3.43839573551720        0.05363610691349
C            2.26996888273295       -4.46539645356988        0.06327808568281
C            3.63783901669185       -4.19987337550360       -0.00230440424645
N            4.54578601763051       -5.27689793667144        0.01655873225527
C            5.46171616985387       -5.54753375708710        1.00467384387236
C            5.68281384221653       -4.88907435787446        2.20720015474084
C            6.66836019871153       -5.38125330836541        3.03765194462165
C            7.42703704331951       -6.51007173662985        2.70655057934934
C            8.48613201935032       -6.98633985862339        3.65515187103843
C            7.18327547789940       -7.17778691260333        1.51703473986263
C            6.19796423681944       -6.70566282594430        0.66206261397870
C            5.67796396947321       -7.15481383699527       -0.60070017943673
C            5.97977510772319       -8.21630394263650       -1.44151653726799
C            5.27021603341149       -8.37007656441587       -2.62191415303485
C            5.56348510776942       -9.50663668533149       -3.55497698378452
C            4.26610346577625       -7.45290366923619       -2.95421361579788
C            3.94581065810289       -6.38691145281592       -2.13926355416677
C            4.65377863393538       -6.24529255118630       -0.95335154436807
C            4.10153142186120       -2.87947941000841       -0.10941255931697
C            5.56588920287478       -2.59233170324516       -0.25643874142418
C            3.17636276273270       -1.85734581902219       -0.10940341740941
N           -0.47871411187175       -1.31231085406822        0.05854981373915
C           -1.32102556664632       -0.29497139904514        0.04431088691099
C           -2.75427128972799       -0.58319719578716        0.10164410892004
C           -3.20548979133095       -1.89909217079854        0.18310003920165
C           -4.55768263167363       -2.15524637843333        0.24489892147897
C           -5.47569850646808       -1.10812518454270        0.22303560475472
N           -6.84867840124084       -1.40399880243492        0.29516159487002
C           -7.56052445584645       -2.12949094283242       -0.63485191107334
C           -7.13100075919947       -2.70122459265802       -1.82392813985092
C           -8.06633667238637       -3.36372280444461       -2.59210838554464
C           -9.40938743221064       -3.46322008332669       -2.21070220429297
C          -10.37046889071522       -4.20106605032588       -3.09475510548706
C           -9.83278179289111       -2.87943580453089       -1.02884489635612
C           -8.91327792596808       -2.20861134034709       -0.23384988263007
C           -9.00689643511613       -1.50618267376026        1.01626228040009
C          -10.04703642714757       -1.26011845845362        1.90214702595767
C           -9.79326798776845       -0.55972155272598        3.06915709856688
C          -10.89040885673004       -0.26954255526217        4.04978125355187
C           -8.49242185556088       -0.12603012413100        3.34899514131053
C           -7.43942431507521       -0.35632362223019        2.48753534391324
C           -7.70714668149964       -1.03268354857170        1.30554671273406
C           -5.04081398727927        0.21816212802909        0.10828950455808
C           -6.02005253716221        1.34724957361260        0.00334876010726
C           -3.67833164377469        0.45740164820517        0.05958976024653
N           -0.93892208514367        0.96690853916606       -0.01310565248209
C            2.22502349088206        2.87187841346469       -0.22732813872649
C            2.68446164990538        4.17058090555085       -0.28018475863965
C            4.14752197426254        4.46373003330557       -0.42855097667959
H            6.11984959593995        9.38672836030920        3.43062484049924
H            4.63369543750295        9.88653897899722        4.22921331251556
H            5.23670760237994       10.79928662198801        2.84077932748680
H            4.43205076747286        7.25604526331299        3.68978993172610
H            3.13499901205340        5.72302926831582        2.25491949267573
H            4.04814886609866       10.40887084080778        0.83063286252669
H            2.82052073544497       10.71295044659756       -1.62670644019820
H            1.91363741027542       10.41838853853822       -4.98305864583871
H            0.44631504054046       10.92913954089027       -4.15714535923853
H            2.00830462703659       11.59557025253951       -3.66781488602331
H            0.54959843417420        8.20951697655989       -4.24247897543771
H            0.76144805128602        6.30131480098384       -2.68889041507713
H           -0.31687810843038        5.75784836507129       -0.13172636766306
H           -1.11640647964159        3.40875171573008       -0.05927869041876
H            0.29879158661197       -3.63291998011454        0.11025431005098
H            1.94277897328614       -5.49316902736465        0.13231869589829
H            5.09047634051400       -4.03097088983396        2.48785289282287
H            6.86175528597205       -4.88628415419268        3.97861440313675
H            9.23864037641728       -6.21246499639006        3.80455285569805
H            8.05096632826146       -7.21701691264745        4.62704717835877
H            8.97751370632107       -7.87814967954718        3.27474782222326
H            7.74990589006615       -8.06035717167609        1.25851731361364
H            6.76093025205543       -8.91401401436788       -1.17721797221548
H            5.84566916677646       -9.12956041256154       -4.53750207658264
H            4.68013857546292      -10.13200079957909       -3.68154325202406
H            6.37319430941104      -10.12412444357633       -3.17471839741454
H            3.72863607146730       -7.58843161419455       -3.88176435025996
H            3.17296671000328       -5.68370418149465       -2.41106344199884
H            5.71557679901440       -1.58711898209133       -0.64200687353153
H            6.03044348579504       -3.30420481518880       -0.93758250354196
H            6.07867845150152       -2.67104415787720        0.70212116815651
H            3.50131352112758       -0.83129986532144       -0.19161499687675
H           -2.48392049474722       -2.70026440364929        0.20458254536753
H           -4.92415214543282       -3.16876676755762        0.32046522868494
H           -6.10008388052679       -2.62736467629293       -2.13668096057457
H           -7.75724459288308       -3.82106653067660       -3.52105725404848
H          -11.37522441969215       -4.17982540325837       -2.68057010503886
H          -10.06323599029842       -5.24056392323216       -3.20616286251013
H          -10.39453378466716       -3.75419478311510       -4.08813935596908
H          -10.86773923564514       -2.94232177005065       -0.72605531530562
H          -11.04220877485714       -1.61854068773289        1.68326043743866
H          -11.83617516154749       -0.68319699264560        3.70933182621469
H          -11.00917029878660        0.80573618418788        4.18052179179006
H          -10.65427896012387       -0.69781710321108        5.02338670018565
H           -8.31074670464682        0.40066334966878        4.27498248818019
H           -6.43714376485580       -0.03808101523192        2.73320886800600
H           -6.39030949419831        1.63680285583647        0.98662496048378
H           -5.54689506448195        2.21406430722805       -0.45087696650676
H           -6.87934695888187        1.05617230597890       -0.59879242929641
H           -3.30782728043532        1.46764567614742       -0.02751891998806
H            2.92132051916533        2.04810549130567       -0.26786482655132
H            4.67551656017829        3.57878813777107       -0.77444136569388
H            4.58355062784302        4.77280528305024        0.52136303607289
H            4.30713896096362        5.27109887976305       -1.14213295267884
