126
 energy: -186.619856936742 gnorm: 0.000057738333 xtb: 6.7.1 (edcfbbe)
C           11.03714528307261        0.57860026935677        3.04034358354979
C            9.84911429343480        0.83175303526013        2.15974256830507
C            8.59026831299131        0.36828439265648        2.55783095716276
C            7.45888397057691        0.56233547353396        1.79175693297700
C            7.60204558285782        1.23072382868854        0.58446524839959
C            8.85672839337880        1.73732390821903        0.17901089118590
C            9.97832672591864        1.52743450199779        0.97093755853440
C            8.63465210560767        2.42909261747151       -1.05993110932903
C            9.46469550234580        3.11692385144188       -1.93604768532061
C            8.92617297582287        3.68118036819713       -3.07853821149285
C            9.78787492274171        4.43529806290228       -4.04798291109092
C            7.55822190000362        3.54478351034015       -3.34084219958738
C            6.71032174012736        2.86499128492217       -2.49041415644560
C            7.25513806710110        2.31426941391650       -1.33998006639194
N            6.64634252212147        1.57290232597618       -0.34836379760010
C            5.28312624444305        1.24125320968754       -0.30006892834305
C            4.34132858553641        2.26567268916179       -0.23448494958866
C            2.99575651904258        1.97588167368276       -0.17680984629822
C            2.57474723589942        0.64742072571516       -0.18392133334042
C            1.15159441740453        0.32335937285088       -0.11008297155877
N            0.80239815313656       -0.96014347395180       -0.11101121169826
C           -0.50232606604134       -1.20857306946234       -0.03592949147592
C           -0.93611431536708       -2.60390723921027       -0.03221672163564
C           -2.28745845292034       -2.92056015091517        0.09370530378112
C           -2.68027096258627       -4.24083289846380        0.10832956946304
C           -1.73776468900593       -5.26061365384210       -0.00469954862214
N           -2.17343417614165       -6.59456061269283        0.02205223092229
C           -1.82203564314971       -7.54879147462468        0.95299852408003
C           -1.04071346566783       -7.42533549107806        2.09275071565570
C           -0.86387424063994       -8.54753391212037        2.87624339506165
C           -1.45286674914321       -9.77715234471289        2.56154215581597
C           -1.21188578376167      -10.95694871641434        3.45653722496492
C           -2.25945938152437       -9.88387675790950        1.44260419059315
C           -2.45508880543929       -8.77085651204189        0.63502312953534
C           -3.23657273937101       -8.52866183849613       -0.54555992459805
C           -4.06072799907578       -9.32547732378277       -1.33018664016963
C           -4.68348631666149       -8.77485559600566       -2.43596048701442
C           -5.58596606800965       -9.59960981070686       -3.30563441424537
C           -4.46876523688435       -7.42910071868092       -2.75450995165123
C           -3.65337953150478       -6.61464671373905       -1.99559040004665
C           -3.04432550784425       -7.17009524281604       -0.88019240780109
C           -0.37958659627351       -4.95826816901007       -0.16825553269449
C            0.63562547093577       -6.03910767557903       -0.38128016156190
C           -0.00109513872624       -3.62662491484997       -0.16797118555559
N           -1.43669573422665       -0.26504732695318        0.03834241520477
C           -0.99844842764128        0.99071799721399        0.03078789194361
C           -1.98830898273610        2.06247108112425        0.11044240573574
C           -3.34494673705653        1.76171297184053        0.21738377741524
C           -4.26530350476966        2.78306436362703        0.30410036154851
C           -3.85021145696531        4.11282441812130        0.28399648008179
N           -4.81488212519249        5.12764680864427        0.38327236757112
C           -5.84630253715208        5.34135343148033       -0.50782981751200
C           -6.15726593529927        4.66247690954487       -1.67660130863254
C           -7.24081136854548        5.10507861335737       -2.40751240231844
C           -8.01070918756768        6.20384962520344       -2.00924459095064
C           -9.17694974233641        6.62708560146731       -2.85294298443061
C           -7.68545715077376        6.88472911928230       -0.84979049016604
C           -6.60152253885937        6.45998206311564       -0.09188567152922
C           -6.00095258419517        6.92518237404446        1.12709954264544
C           -6.30166233273080        7.95307057886986        2.01156494177095
C           -5.52896078166527        8.11907857388356        3.14705748892621
C           -5.81681593754104        9.22076130029534        4.12400513275193
C           -4.47090175993279        7.23896793118316        3.39978550389766
C           -4.14931174607277        6.20906291597925        2.53934712891095
C           -4.90670454360346        6.07005117179505        1.38531319284839
C           -2.49352775339311        4.43199487938074        0.14134564194071
C           -2.03919257604644        5.85499918872617        0.02908647110049
C           -1.58130977585055        3.39334552614190        0.06688716007275
N            0.28564374117951        1.33048033401921       -0.04297595817303
C            3.51937956426366       -0.37156231748213       -0.27296113157160
C            4.87476587361816       -0.09819307634710       -0.34180220829407
C            5.86958384433192       -1.20715435243553       -0.49839738659648
H           11.93552935003835        1.02102397301390        2.61757752997152
H           11.20139650534094       -0.49211816974155        3.15926596447660
H           10.87490519352914        1.00165803206602        4.03117365876414
H            8.50512340195344       -0.15223956392762        3.50120036655345
H            6.49125054060448        0.22355718933529        2.13146011350056
H           10.93930253582560        1.91173097271727        0.66169420295470
H           10.52018983562923        3.20649766520554       -1.72455988926940
H            9.43626908837145        5.46137613363482       -4.15182704014290
H           10.82211210186821        4.45607981590995       -3.71402279508590
H            9.75056649990929        3.97030453760987       -5.03270700567352
H            7.15766255849542        3.98647303365858       -4.24215065770484
H            5.65868177886148        2.76247154163362       -2.71395095178617
H            4.68574634298343        3.28947289759950       -0.21844118878296
H            2.25798624903839        2.75953147293863       -0.11708334441988
H           -3.00656110170171       -2.12300151166194        0.18734295125797
H           -3.72209098960808       -4.50441102401415        0.21844449622021
H           -0.60279802640449       -6.47778175114700        2.36986192712484
H           -0.25695186146083       -8.47764517695919        3.76782267901513
H           -1.74255592827811      -11.83398713127786        3.09494466779938
H           -0.14826598621912      -11.18954922125782        3.50183723273393
H           -1.54805268858373      -10.74146809171291        4.47032776032455
H           -2.74020944785262      -10.82029610467975        1.20014898453889
H           -4.20998464928674      -10.36491418714101       -1.07698550821073
H           -6.59293591913868       -9.18317973312088       -3.31178045740134
H           -5.63833115357386      -10.62527462132774       -2.94946783982717
H           -5.22343781785427       -9.60674345627085       -4.33307210152716
H           -4.95845933860155       -7.01922555681984       -3.62633482712410
H           -3.49237918643094       -5.58053839773951       -2.26217629447187
H            1.50992844796265       -5.63827403879631       -0.88804802371377
H            0.21724826966054       -6.84619379825067       -0.98028005273307
H            0.95818103004902       -6.46744755174814        0.56738878740751
H            1.03699310027275       -3.35862265006885       -0.29072302765659
H           -3.65331256505778        0.72902327479686        0.23902312347480
H           -5.31961322647098        2.56792881736201        0.39985176939010
H           -5.56924506465256        3.81800640478185       -2.00445207657046
H           -7.50643357872663        4.59068398765963       -3.32005470495288
H           -9.66548781053394        7.50139220099661       -2.43043288863447
H           -9.90779212166412        5.82189182056782       -2.92323261322991
H           -8.84913562056533        6.86704981818162       -3.86392989252227
H           -8.26513181083476        7.73990970239216       -0.53439833613851
H           -7.13631344892204        8.60997748150792        1.81500720027718
H           -6.68148233010071        9.80090261292171        3.81199174053852
H           -4.96113707944479        9.89071930554134        4.20490693031604
H           -6.01247171318654        8.81109083762848        5.11442744513279
H           -3.89373967482892        7.36989038268479        4.30415382867005
H           -3.34823868741600        5.52171629894032        2.76799746712091
H           -1.93600120719090        6.31273065873227        1.01262169371911
H           -1.07516507322106        5.90292937892538       -0.47104830664124
H           -2.76077265800527        6.44518023666671       -0.53332114320405
H           -0.52861049017158        3.60372190488003       -0.04298557391900
H            3.17040006270537       -1.39228351975646       -0.30153250234450
H            5.38643716589451       -2.09013475268707       -0.90912710312028
H            6.31200419472393       -1.47551791100282        0.46064834315371
H            6.67965514032455       -0.90545637936841       -1.16026960662590
