54
 energy: -81.342566702738 gnorm: 0.000035837827 xtb: 6.7.1 (edcfbbe)
C            5.33192295395678        0.88863827007717       -0.25163593203077
C            4.55716893593229        1.18519288763968       -1.36076031158545
C            3.25191942215698        0.74188992182970       -1.44410614711646
C            2.69174308341601       -0.00294670075086       -0.40595448676790
N            1.36716246362000       -0.44066865041110       -0.48175957428144
C            0.41672866206575        0.29920306099534       -1.20451034085279
C           -0.51481620790601       -0.35573887027516       -2.00630792556810
C           -1.47914467261605        0.36548951342895       -2.68412734434053
C           -1.52019908545055        1.74475720217902       -2.58129499718052
C           -0.58348882456832        2.40173283799339       -1.79975009775014
C            0.37943641955931        1.68955006099500       -1.11362907252485
C            0.99115605378979       -1.65830658539377        0.09432587858510
C            1.83513343030860       -2.76611932213968        0.00701142909096
C            1.47257908249682       -3.98480095889015        0.54387612113716
C            0.24881158723178       -4.13045009269287        1.17769648387228
C           -0.59812078968523       -3.04314437424621        1.28103147506777
C           -0.24055879333835       -1.80659157800042        0.75805495300111
N           -1.13212138495847       -0.72830248846353        0.88962593880814
C           -0.84630113026995        0.50064649608412        1.44406296238603
C            0.28712897976848        0.91438869423552        2.12685915448812
C            0.32038406527277        2.21516329797057        2.59059397176488
C           -0.75160855992024        3.08301929251182        2.39529682065611
C           -1.89428509299801        2.66636379868096        1.74174460438046
C           -1.94990956935733        1.36483044238375        1.26290697143966
C           -2.94564064400166        0.60979437402053        0.55669311107477
C           -4.21239683652114        0.91012773424243        0.07494865092331
C           -4.91221722760461       -0.06829371473322       -0.60209776429710
C           -4.36353332796361       -1.33257559771271       -0.80506091020581
C           -3.10520191464312       -1.65560680995953       -0.33567532796107
C           -2.40106188554183       -0.67768739562130        0.35029225190971
C            3.47967732701582       -0.30276620859021        0.70603693719897
C            4.78616274524636        0.13896833961479        0.77691488010702
H            6.35227575722852        1.23519020590588       -0.19091134163148
H            4.97505127720881        1.75980563340837       -2.17435651777489
H            2.65853362308044        0.96557740420622       -2.31827185550567
H           -0.48138505302004       -1.43289641101175       -2.08889801009604
H           -2.20318938347110       -0.15534198722626       -3.29266284879472
H           -2.27874717317042        2.30498258431597       -3.10606392032687
H           -0.61119705609307        3.47743935930222       -1.71026444713425
H            1.09547272264189        2.20098929140567       -0.48774215643284
H            2.77913477801768       -2.65834504716696       -0.50683638690139
H            2.14196686756050       -4.82705832565683        0.45558028805912
H           -0.04103182361171       -5.08265159446659        1.59431193595742
H           -1.54736132918266       -3.13269827814627        1.78852159384877
H            1.11641624746025        0.24475645757170        2.29339498880481
H            1.19611425589787        2.56559278233323        3.11718545928854
H           -0.68635351209940        4.09376536714988        2.77037037612305
H           -2.73030814227135        3.33550977628892        1.60411382440080
H           -4.63542550100392        1.89197173619640        0.22524727731924
H           -5.89894897542778        0.14553752500184       -0.98564239160879
H           -4.93365093397154       -2.07545033104229       -1.34370589617641
H           -2.68102040687580       -2.63409884206378       -0.50604826802827
H            3.06672434921706       -0.88832134904315        1.51460239997495
H            5.38042014738619       -0.10001283426646        1.64677153320116
