54
 energy: -81.233059865990 gnorm: 0.000076310020 xtb: 6.7.1 (edcfbbe)
C           -5.40191558358525        1.11064885693489        0.17793542370868
C           -4.62990229420145        1.40435509487275        1.29476625689909
C           -3.34170159767261        0.92825840648350        1.40072656845368
C           -2.79028740504561        0.14430842156870        0.37666494036458
N           -1.48949041835706       -0.33738798124463        0.48665230021361
C           -0.53891540907539        0.40505176911132        1.20065918750146
C            0.35607377783979       -0.25315121222094        2.05417123828261
C            1.33083550241024        0.46384512722403        2.71602416830866
C            1.42746836111415        1.83653631317920        2.55063868423543
C            0.53019777034504        2.49473707850241        1.71707479355318
C           -0.44688198186668        1.79055613820423        1.04696246464402
C           -1.13796251472727       -1.56158497685631       -0.04516255903883
C           -2.03251982705686       -2.65018117034058       -0.00466719614980
C           -1.63277989591424       -3.91604094565846       -0.31486873340074
C           -0.28010463989631       -4.16685576331063       -0.70849396177675
C            0.61327828299748       -3.13105363051168       -0.77954184092370
C            0.23545872278740       -1.81405728875643       -0.50131596264725
N            1.11603459659150       -0.77714006590632       -0.73004764845106
C            0.82496551950060        0.42342852591672       -1.35445750128321
C           -0.30220103887032        0.79170422037566       -2.06808614301996
C           -0.33534429736628        2.05591942409897       -2.63275121222676
C            0.74472879569944        2.93330277579205       -2.49671699884957
C            1.88994655261267        2.55994257770761       -1.82520232134097
C            1.95059675428765        1.28914762931159       -1.25743014949272
C            2.96079546116662        0.56818092802121       -0.55615291964021
C            4.24526814107302        0.89039631133761       -0.12558187661105
C            4.95544164325765       -0.04293051785976        0.60518928419602
C            4.40259186692853       -1.27966339846790        0.92770768931913
C            3.12512989238211       -1.62621398832494        0.50396583860772
C            2.41972961752892       -0.71008739873112       -0.25206239088873
C           -3.57851249431922       -0.15495282358069       -0.74339127740309
C           -4.86476945889292        0.32815007692096       -0.83740358429876
H           -6.41130609499277        1.48344346912332        0.10062417889559
H           -5.04339500409844        2.00274037071267        2.09297472737091
H           -2.75162379370737        1.14064261830473        2.27972257800518
H            0.26580075617135       -1.32094287297771        2.19132662766721
H            2.01957365892835       -0.05150271884753        3.36840883344182
H            2.19579755946762        2.39164645457899        3.06543008455652
H            0.60201224583007        3.56317808322436        1.58209824480953
H           -1.12788408391485        2.29616828760627        0.37867858852068
H           -3.04239926751330       -2.46987844751663        0.33527553710122
H           -2.32499833897352       -4.73987162088229       -0.24889682658587
H            0.01820352222991       -5.16805250468474       -0.97366911085381
H            1.61927680886678       -3.30863317942864       -1.13077566775891
H           -1.12920885737146        0.11147245407977       -2.19892015218019
H           -1.20553250649423        2.36487503898197       -3.19173473220357
H            0.68086356644732        3.91525198093802       -2.94257831261410
H            2.73008098608865        3.23282028862604       -1.74311266062408
H            4.66844086186085        1.85726011070549       -0.35178542106355
H            5.95360300210387        0.19192756250992        0.94540222195056
H            4.97146067197309       -1.98070152459241        1.51931357271670
H            2.70059304931432       -2.58011331314492        0.77697729727398
H           -3.16653518776503       -0.75558088352983       -1.54051126232301
H           -5.45644947068822        0.09955750982350       -1.71135755324041
