54
 energy: -81.233082787930 gnorm: 0.000061086911 xtb: 6.7.1 (edcfbbe)
C           -5.34523558182393        1.28198705982169        0.24182241322571
C           -4.54782519906134        1.55482685807078        1.34596364980347
C           -3.27656393189361        1.03255704101278        1.43812500535225
C           -2.76783376877991        0.22220479777276        0.41251404571575
N           -1.48392005037751       -0.30378521758008        0.50794597544666
C           -0.49982756739052        0.40169152976097        1.21484883313505
C            0.37437588823018       -0.29261342747155        2.06144245801099
C            1.38319112389749        0.38407796362432        2.71491879832571
C            1.53535172591388        1.75119304728734        2.54677860767475
C            0.65959868337846        2.44526838772553        1.71925487644362
C           -0.35144080588558        1.78166503052457        1.05796842192412
C           -1.17592870913803       -1.53718785129625       -0.02972635194565
C           -2.09793905454871       -2.60203225516855        0.02352109431422
C           -1.73105466926317       -3.87936244500577       -0.27992249388796
C           -0.38656539706349       -4.16686935962635       -0.67845436797477
C            0.53171685243182       -3.15420591035187       -0.76588069445368
C            0.18722696916180       -1.82629556558748       -0.49776427292034
N            1.08392087096934       -0.80869708197875       -0.74993361788515
C            0.80175863727350        0.39156173527602       -1.37931778099141
C           -0.32803061281799        0.76872668551611       -2.08412909687235
C           -0.35273726296049        2.03041368085385       -2.65441778850043
C            0.73847310642623        2.89615636032963       -2.53357775910234
C            1.88627634274545        2.51284528689974       -1.87210985693733
C            1.93801846797796        1.24447478093497       -1.29831456910216
C            2.94640769907700        0.51517917333391       -0.60260691673779
C            4.23807129867040        0.82512781405133       -0.18545722475077
C            4.94452857073740       -0.11234847445943        0.54347393258166
C            4.38092342402914       -1.34136044315546        0.87675419326649
C            3.09583135297672       -1.67544680322131        0.46716396774146
C            2.39318497331079       -0.75481410021939       -0.28608433465182
C           -3.58223504926515       -0.05641848871411       -0.69409271739668
C           -4.85116395664339        0.47290422533352       -0.77435481271561
H           -6.34114913484779        1.69130304499752        0.17511382267674
H           -4.92813679191075        2.17346638191902        2.14523083640438
H           -2.66743144116617        1.22924722819379        2.30770454802391
H            0.24086094634340       -1.35561178094301        2.20028618931006
H            2.05518591317040       -0.15869600339420        3.36249420985695
H            2.33027576378134        2.27449941852276        3.05443373750039
H            0.77503362489288        3.50955938742170        1.58189900190718
H           -1.01611852052226        2.31431464599643        0.39418135971041
H           -3.10055871565728       -2.39427092841673        0.36930911024663
H           -2.44274732574134       -4.68560067305051       -0.20415945969941
H           -0.11470984315314       -5.17778751046400       -0.93509473230082
H            1.53031842155375       -3.35987428564183       -1.12282768533223
H           -1.16286489225852        0.09618822404837       -2.20426731383252
H           -1.22491915898528        2.34646311006755       -3.20629802723986
H            0.68117765890793        3.87661438714431       -2.98359158398283
H            2.73484855022932        3.17644892368437       -1.80207489282242
H            4.66975397581917        1.78615689822438       -0.42034682140351
H            5.94822867238301        0.11307404413345        0.87359596739952
H            4.94767680541227       -2.04598372791410        1.46616235434702
H            2.66316798365752       -2.62307166043478        0.74893960700586
H           -3.20401953676661       -0.67735717188411       -1.49224714526427
H           -5.46276523344646        0.25982499665269       -1.63847573786547
