  49
        -83.04524897
 N          8.3683391376       -1.1095631597       -0.0374254591
 C          7.4133957417       -0.4733179968       -0.0138471617
 C          6.2459712981        0.3175304541        0.0418614784
 C          6.3389125016        1.7065875456        0.1194875172
 C          5.1930459276        2.4861632731        0.1656653386
 C          3.9387069633        1.9052828583        0.1342120956
 C          3.8182512838        0.5213872590        0.0565345668
 C          4.9786186507       -0.2703118201        0.0118476368
 S          4.6396117665       -1.9789479424       -0.0808285428
 C          2.9189506556       -1.6572666716       -0.0599213360
 C          1.9150636275       -2.6132892863       -0.1100202566
 C          0.6031924577       -2.1922029078       -0.0898419385
 C          0.2879925062       -0.8296122470       -0.0223942641
 C         -1.1119085343       -0.4023424363       -0.0102469167
 N         -2.0513802572       -1.3413707852        0.0040762240
 C         -3.3089359062       -0.9050816247        0.0171964637
 C         -4.3828106450       -1.8967164895        0.0305201367
 C         -5.7137955303       -1.4840228095        0.0308171848
 C         -6.7283574477       -2.4211284575        0.0382119236
 C         -6.4252205757       -3.7736314225        0.0462733430
 C         -5.1029259284       -4.1889706729        0.0454892815
 C         -4.0833361397       -3.2572733071        0.0386083678
 N         -3.6474700538        0.3805516853        0.0163795854
 C         -2.6439786718        1.2515051084       -0.0064469827
 C         -2.9715079140        2.6763765248       -0.0241659255
 C         -1.9597592150        3.6277219348       -0.1374973780
 C         -2.2741012539        4.9725707566       -0.1587305792
 C         -3.5962954712        5.3788108352       -0.0664374654
 C         -4.6064728942        4.4362127506        0.0474690935
 C         -4.2988629953        3.0898293628        0.0681255884
 N         -1.3596071720        0.9037582117       -0.0189876586
 C          1.2972256752        0.1223865297        0.0298213876
 C          2.6238349139       -0.2838298780        0.0124427203
 H          7.3163200470        2.1650660697        0.1394346715
 H          5.2867496231        3.5594964938        0.2265714046
 H          3.0506950306        2.5170304357        0.1710777825
 H          2.1648139930       -3.6613874866       -0.1641604381
 H         -0.2049992171       -2.9048853656       -0.1269424053
 H         -5.9303607005       -0.4275944517        0.0228271714
 H         -7.7597726975       -2.0998925765        0.0371668951
 H         -7.2206881005       -4.5045327963        0.0488076578
 H         -4.8702284607       -5.2430320906        0.0497337141
 H         -3.0488738765       -3.5627568952        0.0392992586
 H         -0.9363600990        3.2930590596       -0.2085775500
 H         -1.4888913291        5.7097153183       -0.2466222414
 H         -3.8390834188        6.4314318386       -0.0800944143
 H         -5.6356124279        4.7555628472        0.1204797789
 H         -5.0711676256        2.3422483302        0.1566383842
 H          1.0339860489        1.1667084698        0.0846768607
