  49
  -82.7900244669000       0.481869596261380      !
 N          8.3658868395        1.0946139839        0.0030069868
 C          7.4129575793        0.4619078368       -0.0854541284
 C          6.2442115875       -0.3205536520       -0.1979756736
 C          6.3330593242       -1.6849406488       -0.4714237880
 C          5.1853964577       -2.4552970357       -0.5832935663
 C          3.9333684348       -1.8894116021       -0.4271537000
 C          3.8167819116       -0.5298016319       -0.1553537018
 C          4.9791754250        0.2521876811       -0.0410499022
 S          4.6461181217        1.9305753220        0.2965319544
 C          2.9251805810        1.6103251777        0.2835955883
 C          1.9258125159        2.5509691032        0.4850462829
 C          0.6126608898        2.1375064345        0.4296805425
 C          0.2929931924        0.7962547949        0.1863220352
 C         -1.1098176928        0.3828437124        0.1252520185
 N         -1.3744402371       -0.9194860243        0.1224216894
 C         -2.6631444342       -1.2488961200        0.0697552058
 C         -3.0113873274       -2.6686994039        0.0941900856
 C         -4.3355671256       -3.0671591435       -0.0779633067
 C         -4.6624336021       -4.4089832906       -0.0505264744
 C         -3.6750672504       -5.3614465457        0.1499825054
 C         -2.3564361508       -4.9698238831        0.3229217353
 C         -2.0224685794       -3.6298335037        0.2949135324
 N         -3.6524330060       -0.3644852550       -0.0053583261
 C         -3.2954656395        0.9160112813       -0.0086382290
 C         -4.3486763743        1.9246047846       -0.1083079228
 C         -4.0175920606        3.2738555830       -0.2189748705
 C         -5.0151767769        4.2236371637       -0.3212651227
 C         -6.3467093401        3.8373085159       -0.3130583231
 C         -6.6809224519        2.4962509216       -0.2023652642
 C         -5.6884775710        1.5410201596       -0.1008159570
 N         -2.0344254336        1.3345929417        0.0700873254
 C          1.2972336737       -0.1423414097       -0.0065699926
 C          2.6253620283        0.2587798474        0.0342433691
 H          7.3083332625       -2.1311111426       -0.5953382871
 H          5.2758415696       -3.5093263184       -0.7962782265
 H          3.0442032510       -2.4939572312       -0.5168070534
 H          2.1799503174        3.5816791813        0.6770938523
 H         -0.1929858705        2.8388304459        0.5771783067
 H         -5.0899121947       -2.3120486613       -0.2341961775
 H         -5.6890016844       -4.7170481780       -0.1851211682
 H         -3.9335790114       -6.4100874240        0.1724527037
 H         -1.5897718965       -5.7142096432        0.4813817640
 H         -1.0026954997       -3.3059653782        0.4330353662
 H         -2.9763670707        3.5555877003       -0.2270890379
 H         -4.7578026348        5.2690617119       -0.4086614076
 H         -7.1248638590        4.5822696840       -0.3936463080
 H         -7.7192069033        2.1983150077       -0.1962238263
 H         -5.9292407741        0.4931861665       -0.0124017325
 H          1.0298646147       -1.1701862323       -0.1947786281
  49
  -82.7898733565000       0.410661504238587      !
 N          8.3613657851        1.1100773897       -0.0165324613
 C          7.4088784966        0.4786925358       -0.1169897242
 C          6.2416064802       -0.3043731026       -0.2398229913
 C          6.3308376995       -1.6586498001       -0.5599815786
 C          5.1838810205       -2.4283153630       -0.6836345109
 C          3.9323009015       -1.8719745184       -0.4938924488
 C          3.8154071420       -0.5228164818       -0.1743101023
 C          4.9770645886        0.2583232572       -0.0470081777
 S          4.6438640228        1.9231630179        0.3519791895
 C          2.9236364050        1.5988061611        0.3461490005
 C          1.9243301513        2.5303952378        0.5859647748
 C          0.6114190741        2.1169014875        0.5244633645
 C          0.2924330179        0.7836320904        0.2402496981
 C         -1.1104197344        0.3723128513        0.1664230042
 N         -1.3780877525       -0.9292498925        0.1590906380
 C         -2.6669178687       -1.2548809105        0.0875037427
 C         -3.0197984477       -2.6735081973        0.1123650039
 C         -2.0402160761       -3.6354258428        0.3508462244
 C         -2.3787490755       -4.9742845808        0.3783356733
 C         -3.6922884779       -5.3639063703        0.1666239783
 C         -4.6703064696       -4.4105556392       -0.0711999322
 C         -4.3391274432       -3.0698625142       -0.0974930525
 N         -3.6520294609       -0.3679068133       -0.0090968453
 C         -3.2917386288        0.9116623517       -0.0056664386
 C         -4.3383446272        1.9239418971       -0.1331290240
 C         -3.9991648978        3.2729955713       -0.2189884073
 C         -4.9889229973        4.2270310648       -0.3520262519
 C         -6.3208029657        3.8451435422       -0.4004216472
 C         -6.6631108851        2.5043501562       -0.3146250177
 C         -5.6784437744        1.5448896893       -0.1814722659
 N         -2.0314293371        1.3266131445        0.0997841190
 C          1.2965266914       -0.1470008332        0.0124219946
 C          2.6242728231        0.2554513466        0.0554314367
 H          7.3057192702       -2.0969863044       -0.7122849082
 H          5.2745849355       -3.4742127291       -0.9334314223
 H          3.0437407917       -2.4758113523       -0.5926508176
 H          2.1780910968        3.5546219479        0.8112110212
 H         -0.1942003168        2.8119562380        0.7004458972
 H         -1.0243432312       -3.3130524704        0.5184083529
 H         -1.6194330427       -5.7194730378        0.5655192401
 H         -3.9539227497       -6.4117528270        0.1865774350
 H         -5.6925411969       -4.7171460578       -0.2377897393
 H         -5.0855885164       -2.3141329950       -0.2850572802
 H         -2.9573437628        3.5510375114       -0.1827916816
 H         -4.7250501855        5.2723224299       -0.4187587591
 H         -7.0928421884        4.5933869747       -0.5057655189
 H         -7.7017302745        2.2099714525       -0.3529666611
 H         -5.9256795218        0.4971825122       -0.1128928063
 H          1.0293800185       -1.1683808766       -0.2088995164
  49
  -82.7886065125000       0.107468899500033      !
 N          8.4041323589        0.7864316772       -0.1171132065
 C          7.3309195739        1.1930321303       -0.1301945835
 C          6.0160106935        1.7052301884       -0.1205851141
 C          5.7953830431        3.0811111755       -0.1697625648
 C          4.5040022194        3.5863002829       -0.1690950020
 C          3.4117037705        2.7398990652       -0.1214853655
 C          3.6043600043        1.3628848650       -0.0722322740
 C          4.9125907139        0.8493026872       -0.0706395008
 S          4.9650112858       -0.8929849112       -0.0025370189
 C          3.2160406585       -0.9626973775        0.0263165221
 C          2.4518739142       -2.1190038278        0.0836130039
 C          1.0790215455       -2.0011318744        0.0940745971
 C          0.4665546960       -0.7429129192        0.0458778503
 C         -0.9934809191       -0.6394162476        0.0496744379
 N         -1.6986270759       -1.7589265514        0.1682159396
 C         -3.0219575854       -1.6148358798        0.1691234171
 C         -3.8463012263       -2.8154697516        0.2942635295
 C         -5.2359164709       -2.7118377456        0.2860900404
 C         -6.0146796138       -3.8468701996        0.3991690284
 C         -5.4161691144       -5.0910331839        0.5219080633
 C         -4.0344306641       -5.1992158786        0.5300198751
 C         -3.2495551842       -4.0682629787        0.4178294802
 N         -3.6399748633       -0.4427941454        0.0603490582
 C         -2.8571893304        0.6241502582       -0.0619306224
 C         -3.4956963296        1.9322117179       -0.2002489092
 C         -2.7229506104        3.0706746967       -0.4200297924
 C         -3.3306766851        4.3036967401       -0.5549585821
 C         -4.7102049953        4.4115030950       -0.4711373459
 C         -5.4833790849        3.2819323532       -0.2516013682
 C         -4.8818705344        2.0458662945       -0.1169650812
 N         -1.5275654853        0.5720195341       -0.0707703266
 C          1.2368350027        0.4108761796       -0.0090648387
 C          2.6207207373        0.3109800807       -0.0183870281
 H          6.6452119322        3.7458960713       -0.2119272109
 H          4.3548533979        4.6544195940       -0.2066436395
 H          2.4092205177        3.1388801023       -0.1205744247
 H          2.9300930954       -3.0853996645        0.1182791741
 H          0.4510548882       -2.8764416628        0.1383144571
 H         -5.6837107987       -1.7356802377        0.1881005103
 H         -7.0918502403       -3.7652940787        0.3914373496
 H         -6.0276208778       -5.9775332213        0.6069742067
 H         -3.5714476922       -6.1698230461        0.6237220265
 H         -2.1729451751       -4.1339053991        0.4237315874
 H         -1.6506412188        2.9676349228       -0.4827414747
 H         -2.7306890165        5.1861026987       -0.7253586903
 H         -5.1827065988        5.3775943893       -0.5738667107
 H         -6.5578499946        3.3690094013       -0.1854721293
 H         -5.4669419424        1.1562682524        0.0547123150
 H          0.7463163813        1.3706643665       -0.0423913543
