  49
  -83.0452489700000       0.156184423363729      !
 N          8.3683391376       -1.1095631597       -0.0374254591
 C          7.4133957417       -0.4733179968       -0.0138471617
 C          6.2459712981        0.3175304541        0.0418614784
 C          6.3389125016        1.7065875456        0.1194875172
 C          5.1930459276        2.4861632731        0.1656653386
 C          3.9387069633        1.9052828583        0.1342120956
 C          3.8182512838        0.5213872590        0.0565345668
 C          4.9786186507       -0.2703118201        0.0118476368
 S          4.6396117665       -1.9789479424       -0.0808285428
 C          2.9189506556       -1.6572666716       -0.0599213360
 C          1.9150636275       -2.6132892863       -0.1100202566
 C          0.6031924577       -2.1922029078       -0.0898419385
 C          0.2879925062       -0.8296122470       -0.0223942641
 C         -1.1119085343       -0.4023424363       -0.0102469167
 N         -2.0513802572       -1.3413707852        0.0040762240
 C         -3.3089359062       -0.9050816247        0.0171964637
 C         -4.3828106450       -1.8967164895        0.0305201367
 C         -5.7137955303       -1.4840228095        0.0308171848
 C         -6.7283574477       -2.4211284575        0.0382119236
 C         -6.4252205757       -3.7736314225        0.0462733430
 C         -5.1029259284       -4.1889706729        0.0454892815
 C         -4.0833361397       -3.2572733071        0.0386083678
 N         -3.6474700538        0.3805516853        0.0163795854
 C         -2.6439786718        1.2515051084       -0.0064469827
 C         -2.9715079140        2.6763765248       -0.0241659255
 C         -1.9597592150        3.6277219348       -0.1374973780
 C         -2.2741012539        4.9725707566       -0.1587305792
 C         -3.5962954712        5.3788108352       -0.0664374654
 C         -4.6064728942        4.4362127506        0.0474690935
 C         -4.2988629953        3.0898293628        0.0681255884
 N         -1.3596071720        0.9037582117       -0.0189876586
 C          1.2972256752        0.1223865297        0.0298213876
 C          2.6238349139       -0.2838298780        0.0124427203
 H          7.3163200470        2.1650660697        0.1394346715
 H          5.2867496231        3.5594964938        0.2265714046
 H          3.0506950306        2.5170304357        0.1710777825
 H          2.1648139930       -3.6613874866       -0.1641604381
 H         -0.2049992171       -2.9048853656       -0.1269424053
 H         -5.9303607005       -0.4275944517        0.0228271714
 H         -7.7597726975       -2.0998925765        0.0371668951
 H         -7.2206881005       -4.5045327963        0.0488076578
 H         -4.8702284607       -5.2430320906        0.0497337141
 H         -3.0488738765       -3.5627568952        0.0392992586
 H         -0.9363600990        3.2930590596       -0.2085775500
 H         -1.4888913291        5.7097153183       -0.2466222414
 H         -3.8390834188        6.4314318386       -0.0800944143
 H         -5.6356124279        4.7555628472        0.1204797789
 H         -5.0711676256        2.3422483302        0.1566383842
 H          1.0339860489        1.1667084698        0.0846768607
  49
  -83.0452484600000       0.156100156592118      !
 N          8.3632864851       -1.1128770157       -0.0481988305
 C          7.4114141676       -0.4747895960        0.0059255032
 C          6.2440661922        0.3151979760        0.0694683847
 C          6.3369603922        1.7015391724        0.1864737092
 C          5.1910762562        2.4800187051        0.2491847795
 C          3.9366800652        1.9006786155        0.1954948972
 C          3.8162657592        0.5196309094        0.0778960594
 C          4.9766215086       -0.2711333822        0.0165708157
 S          4.6371919381       -1.9763463507       -0.1252137061
 C          2.9166539282       -1.6541968733       -0.1061583062
 C          1.9126929935       -2.6079476253       -0.1882935798
 C          0.6009159675       -2.1869496018       -0.1614039717
 C          0.2861166432       -0.8266337755       -0.0568428960
 C         -1.1136149072       -0.3995431017       -0.0360246973
 N         -2.0525569017       -1.3387294483       -0.0147458563
 C         -3.3100925941       -0.9032158438        0.0148337395
 C         -4.3812791094       -1.8973564026        0.0477459265
 C         -4.0755835651       -3.2565125883        0.0845517297
 C         -5.0907816124       -4.1925428578        0.1154071992
 C         -6.4151111333       -3.7825310020        0.1101581542
 C         -6.7243076137       -2.4315676803        0.0737753112
 C         -5.7140960135       -1.4902190919        0.0424692455
 N         -3.6495289906        0.3821902896        0.0153978159
 C         -2.6464502428        1.2534089673       -0.0200745195
 C         -2.9724956120        2.6786937649       -0.0383312176
 C         -4.2962621741        3.0961387278        0.0838413198
 C         -4.6007144918        4.4433097430        0.0629163625
 C         -3.5911112752        5.3824335624       -0.0810852624
 C         -2.2726763419        4.9720597227       -0.2038642923
 C         -1.9613540769        3.6266305043       -0.1819695038
 N         -1.3619821666        0.9062288169       -0.0416636136
 C          1.2952555718        0.1231057504        0.0263482316
 C          2.6217561397       -0.2832936544        0.0042463057
 H          7.3142168245        2.1585131221        0.2276642371
 H          5.2847826805        3.5511474461        0.3409481288
 H          3.0486832066        2.5115066548        0.2450940191
 H          2.1622672223       -3.6541662138       -0.2717702193
 H         -0.2074156112       -2.8976771593       -0.2237598818
 H         -3.0397117694       -3.5572840957        0.0898683022
 H         -4.8528447684       -5.2458106632        0.1438817432
 H         -7.2071607569       -4.5167401954        0.1343771069
 H         -7.7570531292       -2.1150510786        0.0697175421
 H         -5.9355193770       -0.4350096779        0.0125733713
 H         -5.0683544160        2.3513534958        0.1958170667
 H         -5.6269572995        4.7661290492        0.1588892701
 H         -3.8318566139        6.4353793816       -0.0981853585
 H         -1.4882573522        5.7060778104       -0.3175614782
 H         -0.9417045952        3.2884761430       -0.2802090205
 H          1.0320646456        1.1655717404        0.1095523253
  49
  -83.0452454000000       0.155595509871552      !
 N          8.3644030715       -1.1245531041        0.0177345295
 C          7.4130968361       -0.4835351681        0.0196302410
 C          6.2478830678        0.3121579980        0.0228231374
 C          6.3441662896        1.7030775662        0.0358443493
 C          5.2000480879        2.4867027463        0.0401641734
 C          3.9442560627        1.9079936304        0.0323081902
 C          3.8203811510        0.5222684236        0.0190763233
 C          4.9790007423       -0.2733347567        0.0137605250
 S          4.6360771667       -1.9835480337       -0.0050915695
 C          2.9163694108       -1.6572355537       -0.0064279668
 C          1.9106479524       -2.6125155297       -0.0205100788
 C          0.5997733452       -2.1882015974       -0.0189107478
 C          0.2872226382       -0.8233325958       -0.0029516813
 C         -1.1124811726       -0.3954937625       -0.0020815063
 N         -2.0509045323       -1.3353375015        0.0151718412
 C         -3.3090358004       -0.9012237324        0.0021400657
 C         -4.3797196428       -1.8965016916        0.0086144194
 C         -4.0793648371       -3.2486563791        0.1608313258
 C         -5.0943821051       -4.1854725551        0.1654696986
 C         -6.4125835005       -3.7833539694        0.0157781728
 C         -6.7162713561       -2.4392445671       -0.1367928597
 C         -5.7065448832       -1.4968607900       -0.1391900432
 N         -3.6498337203        0.3833587576       -0.0174647049
 C         -2.6470374130        1.2559280930       -0.0212031860
 C         -2.9764786869        2.6805000980       -0.0278385332
 C         -1.9633382750        3.6350989680       -0.0906580517
 C         -2.2791090145        4.9796698397       -0.0944086260
 C         -3.6042694636        5.3826389766       -0.0349825883
 C         -4.6159293599        4.4369058533        0.0279632350
 C         -4.3069001103        3.0906796853        0.0314167377
 N         -1.3620240135        0.9101546078       -0.0187771840
 C          1.2982200090        0.1280403947        0.0102054625
 C          2.6240665295       -0.2813437628        0.0081496859
 H          7.3224781684        2.1595989465        0.0424819243
 H          5.2963704326        3.5614773417        0.0499595643
 H          3.0577392616        2.5229192671        0.0362940144
 H          2.1582466024       -3.6624459389       -0.0329118661
 H         -0.2099837337       -2.8999244257       -0.0316277556
 H         -3.0482903420       -3.5432854864        0.2773482584
 H         -4.8609535749       -5.2331912964        0.2861808784
 H         -7.2042758540       -4.5183357060        0.0174404031
 H         -7.7441185441       -2.1290128900       -0.2550524416
 H         -5.9232265593       -0.4471011971       -0.2592176265
 H         -0.9380918085        3.3030487632       -0.1372487959
 H         -1.4930446701        5.7190267948       -0.1434998145
 H         -3.8486077652        6.4348858868       -0.0375204893
 H         -5.6475141403        4.7537183280        0.0744282654
 H         -5.0804473827        2.3406778547        0.0814569904
 H          1.0370954764        1.1742314808        0.0227038585
  49
  -83.0452448500000       0.155504978518504      !
 N          8.4099537310       -0.7207110303        0.0984576145
 C          7.3423418952       -1.1364011213        0.0378978993
 C          6.0354714629       -1.6614490201       -0.0474386294
 C          5.8317040546       -3.0323467516       -0.1987839273
 C          4.5463773609       -3.5464900846       -0.2808598021
 C          3.4438231999       -2.7146037784       -0.2134083007
 C          3.6193904848       -1.3426004624       -0.0630283063
 C          4.9216383541       -0.8199968227        0.0182075521
 S          4.9548562980        0.9144059195        0.1987378479
 C          3.2056921159        0.9687686902        0.1679441224
 C          2.4303304982        2.1146252041        0.2671621912
 C          1.0592594940        1.9867312541        0.2246483064
 C          0.4595395910        0.7286550736        0.0886685906
 C         -0.9995892655        0.6195163629        0.0488358545
 N         -1.5317111203       -0.5982590964        0.0219535021
 C         -2.8613496952       -0.6497055865       -0.0116266230
 C         -3.5004396570       -1.9646725084       -0.0328752874
 C         -2.7292514477       -3.1226064664        0.0447351036
 C         -3.3386470225       -4.3619299267        0.0226465788
 C         -4.7181430335       -4.4568316074       -0.0771938049
 C         -5.4899610527       -3.3077796578       -0.1534688858
 C         -4.8868517197       -2.0654380082       -0.1311490858
 N         -3.6448549416        0.4236477519       -0.0286915201
 C         -3.0282350012        1.6010640336       -0.0035965893
 C         -3.8518844104        2.8084802907       -0.0280247781
 C         -5.2417294682        2.7059734292       -0.0431374674
 C         -6.0187993810        3.8474462115       -0.0688571573
 C         -5.4183557012        5.0970995148       -0.0802118179
 C         -4.0362466946        5.2042471383       -0.0654775044
 C         -3.2530615904        4.0667593545       -0.0392463491
 N         -1.7059629290        1.7445659638        0.0407843959
 C          1.2408588085       -0.4146613340       -0.0099765132
 C          2.6238535006       -0.3041200502        0.0261317092
 H          6.6892294465       -3.6861391636       -0.2512467088
 H          4.4100443650       -4.6105126375       -0.3983156116
 H          2.4465155568       -3.1211837725       -0.2779363035
 H          2.8988972685        3.0804004064        0.3744314717
 H          0.4222282493        2.8534240379        0.2981399928
 H         -1.6575358627       -3.0293394298        0.1245890132
 H         -2.7402994202       -5.2592546855        0.0838672507
 H         -5.1921960373       -5.4273495401       -0.0950223576
 H         -6.5646191025       -3.3844611573       -0.2305393359
 H         -5.4708864573       -1.1606491954       -0.1907015856
 H         -5.6909540259        1.7254036714       -0.0330412577
 H         -7.0959132800        3.7667900126       -0.0800158185
 H         -6.0283547215        5.9884449204       -0.1001920238
 H         -3.5712115742        6.1791932268       -0.0740002976
 H         -2.1763632158        4.1315650705       -0.0301419185
 H          0.7601933582       -1.3741983536       -0.1161418226
  49
  -83.0451315300000       0.137932316937497      !
 N          8.3972360626       -0.8126850455        0.1105484163
 C          7.3293040752       -1.2052235723       -0.0365956888
 C          6.0181547353       -1.6925731506       -0.2216688359
 C          5.8062606181       -3.0120335544       -0.6195944503
 C          4.5183444477       -3.4924186822       -0.8028863817
 C          3.4210380343       -2.6766920207       -0.5962736984
 C          3.6048685286       -1.3555038811       -0.2004515455
 C          4.9096834325       -0.8673487425       -0.0136523177
 S          4.9522455470        0.8058069615        0.4768700640
 C          3.2039148872        0.8818195868        0.4331035430
 C          2.4354661234        2.0005490454        0.7195661103
 C          1.0646680256        1.8985279522        0.6252888147
 C          0.4591633045        0.6903648683        0.2591293468
 C         -0.9988802295        0.6089963650        0.1591050032
 N         -1.5472107408       -0.5952853830        0.0360807505
 C         -2.8754921569       -0.6214586697       -0.0477447586
 C         -3.5321043028       -1.9234468040       -0.1545105259
 C         -4.9078015194       -1.9979711225       -0.3637051401
 C         -5.5262511255       -3.2293443158       -0.4602797662
 C         -4.7807468010       -4.3928764449       -0.3475912457
 C         -3.4119990917       -4.3238141438       -0.1382485345
 C         -2.7870257774       -3.0957605605       -0.0424061221
 N         -3.6407360608        0.4652259378       -0.0418430243
 C         -3.0071483494        1.6281743132        0.0731592635
 C         -3.8064625091        2.8518954312        0.0660000583
 C         -3.1804626295        4.0969893635        0.0803862904
 C         -3.9386278537        5.2514068784        0.0652434014
 C         -5.3226488883        5.1741395029        0.0367535604
 C         -5.9498709782        3.9376953653        0.0231457287
 C         -5.1979145018        2.7792079074        0.0370446324
 N         -1.6864950481        1.7447470731        0.1911269263
 C          1.2326339809       -0.4282362322       -0.0186183886
 C          2.6155868243       -0.3402436806        0.0600433142
 H          6.6598643003       -3.6524553592       -0.7833101587
 H          4.3759402356       -4.5164718662       -1.1120087351
 H          2.4215555887       -3.0560841977       -0.7419592590
 H          2.9089371843        2.9266326278        1.0059677671
 H          0.4327871610        2.7464366281        0.8361326243
 H         -5.4711806331       -1.0821426365       -0.4503030157
 H         -6.5925462772       -3.2862021300       -0.6235083562
 H         -5.2670760311       -5.3546049412       -0.4220433203
 H         -2.8342695334       -5.2321950651       -0.0484349568
 H         -1.7239033143       -3.0223600731        0.1257852413
 H         -2.1026997351        4.1377974282        0.0990986003
 H         -3.4527337824        6.2160874749        0.0747483328
 H         -5.9131164708        6.0786750225        0.0245245695
 H         -7.0283402761        3.8806803379        0.0009784503
 H         -5.6681793237        1.8083755949        0.0283446094
 H          0.7468250246       -1.3489183539       -0.3009440380
  49
  -83.0450295400000       0.123821104218105      !
 N          8.4005049753       -0.7500767682        0.1178300754
 C          7.3364391567       -1.1438147439       -0.0515950418
 C          6.0303993144       -1.6353959099       -0.2599496751
 C          5.8313153837       -2.9353624619       -0.7236108198
 C          4.5480310152       -3.4183008359       -0.9313041187
 C          3.4428396575       -2.6246268857       -0.6851259241
 C          3.6138332989       -1.3235158773       -0.2226372720
 C          4.9138633007       -0.8330419647       -0.0100568620
 S          4.9403697175        0.8133530432        0.5649090961
 C          3.1914709298        0.8755216453        0.5211767958
 C          2.4127090318        1.9728468487        0.8579112702
 C          1.0433031600        1.8652644896        0.7499826082
 C          0.4495431848        0.6712084554        0.3235836444
 C         -1.0068430221        0.5866950916        0.2034734886
 N         -1.5506274284       -0.6167465152        0.0558512469
 C         -2.8771914592       -0.6432995515       -0.0526205024
 C         -3.5303716151       -1.9450403325       -0.1809668596
 C         -2.7895177224       -3.1174379343       -0.0454683544
 C         -3.4114332118       -4.3452014014       -0.1626049187
 C         -4.7724743124       -4.4137954803       -0.4173100759
 C         -5.5136795766       -3.2501201544       -0.5530727853
 C         -4.8985716445       -2.0190935218       -0.4345628996
 N         -3.6433043433        0.4427779596       -0.0551225908
 C         -3.0138197692        1.6050311504        0.0864231291
 C         -3.8119347421        2.8293513305        0.0665915570
 C         -3.1856999104        4.0729615117        0.1267928145
 C         -3.9408570804        5.2289231610        0.0952618764
 C         -5.3222364480        5.1547843602        0.0037254048
 C         -5.9497274786        3.9198788988       -0.0556562857
 C         -5.2007195781        2.7597555308       -0.0246031440
 N         -1.6965347409        1.7209411914        0.2381086849
 C          1.2328817365       -0.4274884559       -0.0011208625
 C          2.6148312638       -0.3319314656        0.0872631014
 H          6.6912011500       -3.5579427491       -0.9203836000
 H          4.4156078705       -4.4267556316       -1.2918731598
 H          2.4470954277       -3.0057977751       -0.8497873583
 H          2.8771677559        2.8875011137        1.1923608355
 H          0.4037590878        2.6974137667        0.9981851896
 H         -1.7324319353       -3.0443702121        0.1575834659
 H         -2.8371300322       -5.2537978428       -0.0552143867
 H         -5.2559363775       -5.3752563173       -0.5105319605
 H         -6.5735686779       -3.3065856667       -0.7534734467
 H         -5.4580313273       -1.1030421887       -0.5411762094
 H         -2.1096100389        4.1110665994        0.1945231004
 H         -3.4545850859        6.1923019559        0.1417050815
 H         -5.9103566745        6.0605786206       -0.0219939259
 H         -7.0261883808        3.8654479713       -0.1272687080
 H         -5.6713288363        1.7902012093       -0.0694398456
 H          0.7558808163       -1.3368632141       -0.3313865440
  49
  -83.0449585600000       0.114861510498494      !
 N          8.3518914266       -1.1696190745       -0.0064516214
 C          7.4038025630       -0.5346406986        0.1098852728
 C          6.2421030651        0.2530160448        0.2541491940
 C          6.3400011069        1.5947094596        0.6207111052
 C          5.1983833752        2.3683681269        0.7667501888
 C          3.9434397839        1.8281040966        0.5536170433
 C          3.8179310680        0.4915142862        0.1881258211
 C          4.9741703779       -0.2936982946        0.0388437160
 S          4.6300963749       -1.9423723054       -0.4141480966
 C          2.9121396961       -1.6060346664       -0.4005117052
 C          1.9066307516       -2.5227177729       -0.6698857596
 C          0.5964943478       -2.1023209957       -0.5955231494
 C          0.2867579957       -0.7761386417       -0.2712685197
 C         -1.1133195332       -0.3579893139       -0.1830957209
 N         -2.0376234748       -1.3085000558       -0.1111923216
 C         -3.2946637215       -0.8883131536        0.0117199254
 C         -4.3430447411       -1.8967339290        0.1533797807
 C         -4.0076510987       -3.2475010343        0.2268773124
 C         -4.9985958052       -4.1982124649        0.3737744228
 C         -6.3277247478       -3.8112405853        0.4487379976
 C         -6.6662216197       -2.4688343191        0.3752740180
 C         -5.6804268689       -1.5126086954        0.2282963638
 N         -3.6493137374        0.3927593804        0.0212201431
 C         -2.6615588561        1.2757481262       -0.0854949091
 C         -3.0087036237        2.6957623937       -0.1089959608
 C         -2.0254131061        3.6536615034       -0.3485860159
 C         -2.3585436497        4.9938600299       -0.3760585895
 C         -3.6703587013        5.3888230899       -0.1636117155
 C         -4.6519541001        4.4395381870        0.0755902286
 C         -4.3261673833        3.0975553432        0.1022590729
 N         -1.3747203689        0.9446898677       -0.1686687335
 C          1.2968965653        0.1403607975       -0.0152818774
 C          2.6217992575       -0.2703688963       -0.0683140260
 H          7.3174845821        2.0205455296        0.7901249291
 H          5.2957685678        3.4045456990        1.0520008918
 H          3.0588220608        2.4346846108        0.6706409457
 H          2.1534635880       -3.5414856753       -0.9247726394
 H         -0.2138563759       -2.7865221309       -0.7904809226
 H         -2.9677176258       -3.5291528386        0.1726496472
 H         -4.7377265800       -5.2447907961        0.4320524890
 H         -7.1005641967       -4.5568490144        0.5656380026
 H         -7.7027576818       -2.1706438072        0.4336170877
 H         -5.9247340321       -0.4636848512        0.1691502732
 H         -1.0110768228        3.3270166666       -0.5172574571
 H         -1.5964855482        5.7359204068       -0.5646463103
 H         -3.9280672639        6.4376738584       -0.1851322106
 H         -5.6732055839        4.7502084018        0.2406370847
 H         -5.0761578854        2.3448344485        0.2874915647
 H          1.0368293357        1.1569051933        0.2348305023
