98
 energy: -136.478874212517 gnorm: 0.000033206604 xtb: 6.7.1 (edcfbbe)
C            7.37652133500621       -0.30591646606357        0.50809097677019
C            5.90430577172907       -0.04574631650203        0.39446421438730
C            5.21794557559667        0.65708343722684        1.37546697953514
C            3.85912859235359        0.88702925328794        1.26556801346295
C            3.14736647785188        0.41482325357802        0.16953966719206
C            1.69284436410312        0.66240791616512        0.05257700311597
C            0.80076817141038       -0.42481369170583        0.06058603577795
C            1.34691137857436       -1.79915047042058        0.06721697210960
C            2.11977959223666       -2.25013869648444        1.13053186474940
C            2.63598096102441       -3.53224238301491        1.12979123988235
C            2.40503998480341       -4.39885319593453        0.06923296887650
C            2.98090229503647       -5.79422535877506        0.07943434659639
C            3.95672847301934       -5.98848119034528       -1.08405775844637
C            1.86909690393968       -6.84564810429890        0.03930787395881
C            1.63507273887071       -3.94173528222179       -0.99409580768660
C            1.11174938437495       -2.66396085051147       -0.99617535564495
C           -0.56695293274932       -0.19950058862839        0.06467322823584
C           -1.45359749489900       -1.37845723117053       -0.03183061760458
C           -1.40387813270431       -2.41631054423533        0.89447389750703
C           -2.19862661356138       -3.53542541444631        0.74228278061924
C           -3.05962892665943       -3.66191283686245       -0.34185650388985
C           -3.92433523689551       -4.88620250997833       -0.51936026454551
C           -4.91897311922800       -5.02339588691999        0.63633466988735
C           -3.06554230874729       -6.14647492027341       -0.65266780083469
C           -3.10455957526326       -2.62521484093638       -1.26572024771595
C           -2.31564026050242       -1.50087359886738       -1.11744026363624
C           -1.07587499104490        1.12253373759197        0.03161518210660
C           -0.17505033780428        2.19395739611560       -0.21517366827651
C           -0.73293883681947        3.45480748177756       -0.61846613716830
N            0.06699960549982        4.52872428447479       -0.96586953316322
C           -2.09444562016726        3.61560656535035       -0.66620472502365
C           -2.99636202212714        2.63953905991119       -0.19978642227616
C           -4.41615072536733        2.86471844678826       -0.13748336062120
C           -5.02294519262190        4.01234550279551       -0.67909929704662
C           -6.38126592106325        4.19815419378473       -0.64515860885113
C           -7.20679243395926        3.23219011879507       -0.06805891027077
C           -6.65041244143120        2.10505100341234        0.47762235980081
C           -5.25949245465899        1.89813363781184        0.46755903982163
C           -4.66464349832255        0.74474728797453        1.07111423151037
N           -5.45273132765436       -0.17454018887154        1.75274474088154
C           -3.32394643755983        0.51696388763815        0.92002089138363
C           -2.47576878778153        1.40428858001046        0.22451986385585
C            1.21711157490124        1.95233812543319       -0.11565846592821
C            2.23097459121597        3.03160002687350       -0.13233720050226
C            2.29979576120677        3.94190603334845        0.91953921083332
C            3.29382072107761        4.89970641054662        0.95326136633967
C            4.24546310416088        4.98077518987937       -0.05789369526697
C            5.33549431660440        6.00778210168583        0.00125561611688
C            4.17186661254606        4.07433079239101       -1.10779536924051
C            3.18329764427580        3.10819007019393       -1.14438764839202
C            3.83052779746302       -0.29672275586031       -0.81103788124558
C            5.18865118970072       -0.51982752508155       -0.69942875786420
H            7.88219946636362       -0.05904077011458       -0.42409155961346
H            7.55591997659317       -1.36154766825461        0.71425120430817
H            7.81487787909814        0.28048308857890        1.31187909760321
H            5.75194278660661        1.03261291649960        2.23747495359701
H            3.34128074274504        1.43439789510521        2.04053472358800
H            2.30925911036293       -1.59348071866728        1.96800515222409
H            3.23135865236730       -3.86312969679650        1.97004270034529
H            3.53815852649166       -5.92395888468286        1.01454587587395
H            3.44204609568304       -5.90381283795530       -2.03806544375032
H            4.74083665614509       -5.23453458902078       -1.04874710105584
H            4.41819469943592       -6.97237949071723       -1.02829049505077
H            2.29319891285200       -7.84504426271726        0.11265551402017
H            1.18060154070064       -6.69898422952151        0.86905335392112
H            1.30628602821669       -6.77830738216050       -0.88839548406124
H            1.43723545850289       -4.58946071016980       -1.83560565608392
H            0.51741835932230       -2.32617648529111       -1.83375516372649
H           -0.74834290421143       -2.33526364348312        1.75019088717255
H           -2.14045868333104       -4.32135571979579        1.48108606557123
H           -4.49662788634810       -4.76502619627853       -1.44632885832731
H           -4.39742790047786       -5.16587010923655        1.57978911366106
H           -5.57119706238539       -5.87859488712578        0.47144914730840
H           -5.53323154667440       -4.12844036280043        0.71315258765732
H           -3.69464030734087       -7.01146752677159       -0.85273671242129
H           -2.35725509611669       -6.03544393547853       -1.47128182437158
H           -2.50612289711045       -6.33256331461985        0.26074678140946
H           -3.76589677998405       -2.69827684910942       -2.11828898750198
H           -2.36211185289239       -0.70650373689723       -1.84936204333458
H            0.98218139844396        4.32036327784593       -1.32857102966699
H           -0.41592728246018        5.26981422659727       -1.44949699440261
H           -2.46648385364635        4.56242999608781       -1.02666774556803
H           -4.41534875312608        4.76731578636796       -1.15239607318763
H           -6.81629837328386        5.08837202258858       -1.07664154278166
H           -8.27796325918667        3.37325876828132       -0.05735535612707
H           -7.29531199568644        1.34847989174891        0.89951350787090
H           -6.23228801975062        0.20887001448353        2.26444245436764
H           -4.92224268092297       -0.84462391979966        2.28965263170126
H           -2.90014302771529       -0.35075940756050        1.39865303793772
H            1.56671170613049        3.88943112857011        1.71164607247493
H            3.33598152961941        5.59528196722361        1.77953762093572
H            4.96053173757096        6.94644471946358        0.40412595750574
H            5.75478508005141        6.18762607870591       -0.98582965743363
H            6.13801561978188        5.65975250633720        0.65292806928711
H            4.90029860821824        4.11872779951749       -1.90530276223059
H            3.14180142849303        2.40842474316763       -1.96748004074931
H            3.29215939641656       -0.67009117534319       -1.67082513626404
H            5.70412716942860       -1.07055298092550       -1.47420505505489
