98
 energy: -136.477989157302 gnorm: 0.000038455940 xtb: 6.7.1 (edcfbbe)
C            7.03917985381746       -1.33490708616339        0.41148055233017
C            5.65129673102573       -0.78021983379100        0.29347586693343
C            5.12525547434332        0.04980186100949        1.27494298681727
C            3.83826987285950        0.54353945379935        1.17296292429708
C            3.03899426867375        0.21761309540187        0.08363118901691
C            1.65801666225949        0.73875189946390       -0.02010979648896
C            0.57519130734798       -0.15928827822977        0.00651575207785
C            0.84860939067459       -1.61267527461141       -0.02345926642329
C            1.53050753146089       -2.23429899588773        1.01665420074547
C            1.79196821714237       -3.58968967611201        0.97652092323758
C            1.39056266502678       -4.36481052353356       -0.10518324548921
C            1.67315036260640       -5.84673282306025       -0.15665923807542
C            0.94329921786532       -6.57602548918860        0.97451506905599
C            3.17799443034877       -6.12137845965009       -0.10123226596814
C            0.71398437027133       -3.73851065074237       -1.14407721228835
C            0.44346740568295       -2.38387684466161       -1.10625453747571
C           -0.72380037732107        0.32052410447490        0.06167524777879
C           -1.81134698586658       -0.67948009596016        0.00299476506989
C           -1.91223655347791       -1.71126533758728        0.93091846556655
C           -2.88168110155644       -2.68703552016771        0.79506879817669
C           -3.77243768095599       -2.67274704727142       -0.27100980748859
C           -4.80264853432428       -3.76554679641260       -0.42521383642914
C           -4.54972764700286       -4.56175678907365       -1.70846328144360
C           -6.22447113731945       -3.19880035171455       -0.40895215864673
C           -3.67318589089867       -1.63575057364645       -1.19249970305813
C           -2.71057642438589       -0.65485034321736       -1.06019420756690
C           -0.97487606909067        1.71537031331012        0.03610305803118
C            0.10347200704934        2.58898062188252       -0.27082013588595
C           -0.22087152182465        3.92176595691185       -0.69941652755886
N            0.71398295436809        4.73066657131318       -1.31539951876874
C           -1.51961465431532        4.35969700406592       -0.64359349507757
C           -2.56213753780309        3.59093411192088       -0.09080597286542
C           -3.89022904588203        4.11292181618611        0.09392256312402
C           -4.26748015956210        5.38592943725138       -0.37190236640423
C           -5.53232004258903        5.88151346815514       -0.18760425524145
C           -6.48933756451335        5.12201912594622        0.48651734688721
C           -6.15914536795420        3.87650994247116        0.95191509266686
C           -4.87185362649087        3.33990238537022        0.76704084188165
C           -4.50970681353335        2.04682366996113        1.26363319338757
N           -5.38423748503003        1.32520656444026        2.06615628237243
C           -3.25681792146193        1.55260133164339        1.01873170828011
C           -2.27771496869062        2.27028427215950        0.30170777988545
C            1.42857921809901        2.09342844384811       -0.18805794280418
C            2.62005191491482        2.97334002694651       -0.19211058010918
C            2.82559737230784        3.86367604447133        0.86209844797910
C            3.97151612032565        4.63332984254542        0.91831296836380
C            4.94661823714178        4.53682204356997       -0.06892142042930
C            6.17855737556355        5.38773967224961       -0.00790311580969
C            4.73913779340095        3.64895191003207       -1.11760499829700
C            3.59695245254523        2.87249710402471       -1.17884839356281
C            3.56186776202940       -0.61511272555247       -0.89970628506172
C            4.84953127509447       -1.10366837363680       -0.79499249928460
H            7.00173865605461       -2.34910009613929        0.81155569326628
H            7.64493308485273       -0.72829482359638        1.08057432478279
H            7.52213072485283       -1.37830422289007       -0.56265444205833
H            5.72980362697562        0.31491432829559        2.13132883181319
H            3.44415385356094        1.18418527103228        1.94939342290441
H            1.84877103828165       -1.64933058038304        1.86833572028355
H            2.31809400430019       -4.04567230012538        1.80238084547099
H            1.29221121270020       -6.23171694476933       -1.10976074796072
H            1.10027931567390       -7.64977071559510        0.89405114003943
H            1.30816704831310       -6.24642087471859        1.94434054726110
H           -0.12538881438297       -6.37624796055370        0.92398616139448
H            3.36995813961571       -7.18717114741641       -0.20768684008768
H            3.68824449244517       -5.59438027817462       -0.90516716858631
H            3.59748706300362       -5.78952962345417        0.84529862004644
H            0.39241370214056       -4.31880377035539       -1.99845052882914
H           -0.08205541875722       -1.91477956837873       -1.92628370482759
H           -1.23402226635132       -1.74123363830007        1.77165234706344
H           -2.93991887977696       -3.47914145435013        1.52929526386275
H           -4.70041843528704       -4.45063822695503        0.42458737179738
H           -4.67323623381262       -3.93015294761132       -2.58491808383864
H           -5.24916955131075       -5.39208739234196       -1.78111363039908
H           -3.53654719567416       -4.95920979263541       -1.71206412417081
H           -6.95047308769498       -4.00594210040889       -0.48208866466714
H           -6.40578924024027       -2.65495027282006        0.51604138400403
H           -6.38110977750443       -2.51978116765339       -1.24347732372551
H           -4.35050700119498       -1.59379900513379       -2.03298478589619
H           -2.64287093216644        0.13973584196279       -1.79029796180795
H            1.68449588461483        4.52869639071665       -1.14333814636721
H            0.48286511194830        5.71050221599299       -1.34877874604328
H           -1.71750175760263        5.35366655741698       -1.01343090214488
H           -3.55298800721284        5.99581616778370       -0.90134801743834
H           -5.79019449791309        6.86123629906875       -0.56365370828865
H           -7.48397944461468        5.51574145939496        0.63832617288711
H           -6.90791237291303        3.30350508150745        1.47880291038726
H           -6.36558264307594        1.43689050177974        1.86767385177866
H           -5.11731441388006        0.36059175622278        2.19359786377552
H           -3.00412024570936        0.59292607649388        1.43845800222909
H            2.07765710002148        3.94307465410487        1.63944484370416
H            4.11574155552309        5.31493137513930        1.74482810811224
H            6.52538261010565        5.49155507415770        1.01815536706942
H            5.96148266127022        6.38603154653165       -0.39050730006541
H            6.97603327124040        4.95962128193264       -0.61025869221474
H            5.48517806271116        3.55650197332997       -1.89394268976050
H            3.45204067242684        2.18530844264579       -1.99934734411850
H            2.95512483009465       -0.87413803095741       -1.75587286300915
H            5.23955136192791       -1.74755356474645       -1.57118633759841
