98
 energy: -136.408062802274 gnorm: 0.000050463382 xtb: 6.7.1 (edcfbbe)
C            7.45776766929186       -0.32202320580784        0.39869704441990
C            5.98536844556536       -0.05954375039383        0.29030222851533
C            5.30643259366659        0.64813862501503        1.27357556312195
C            3.94738360386208        0.87907644843225        1.17284982647731
C            3.22556719326761        0.40138804125144        0.08481442954170
C            1.77008608530809        0.64317504396569       -0.02292403243356
C            0.89608834446544       -0.43864818604693       -0.04243538095531
C            1.41636022411563       -1.81597478804873       -0.03960764449727
C            2.25908783989698       -2.26697621191734        0.97269904355266
C            2.74080442373744       -3.56159930152492        0.96521852174528
C            2.40324702649926       -4.44969242026381       -0.04848070429922
C            2.92998052887676       -5.86427857510287       -0.03731479807991
C            3.77232503705868       -6.14823916815251       -1.28352457309752
C            1.78129114237692       -6.86928048027830        0.08386000010967
C            1.56368740341624       -3.99661560862955       -1.06028663509415
C            1.07609250439593       -2.70570324016643       -1.05658027442880
C           -0.50562256876023       -0.20920548333903       -0.02349890664067
C           -1.40740824720024       -1.37432644118510       -0.06146479769263
C           -1.31998207572381       -2.40472927716453        0.87273300232734
C           -2.15020214503448       -3.50506512665150        0.79177728666967
C           -3.08841050599937       -3.62414524642930       -0.22704173240759
C           -3.99464417100089       -4.82720710469304       -0.32590341963643
C           -4.91047818346636       -4.92193249714380        0.89739028793081
C           -3.18126255501665       -6.11253593445529       -0.49848950388664
C           -3.17209736115896       -2.59690718670216       -1.16022470297831
C           -2.34847187574126       -1.49192601468804       -1.08229711875740
C           -1.00026281797792        1.09184953620767       -0.03286383185281
C           -0.11147220955438        2.18957568796755       -0.24508172787123
C           -0.67759131753285        3.41515722534649       -0.67212246016492
N            0.07651329426006        4.49048945584442       -1.06512478735759
C           -2.08672867591794        3.56584637667900       -0.76992098426262
C           -2.96165323702082        2.59693866245540       -0.35492174853257
C           -4.40619384871219        2.76413387141423       -0.36207795410997
C           -5.02678183413610        3.76693042672502       -1.10052808528421
C           -6.40506156093010        3.93661659721576       -1.08338993676519
C           -7.19326487939831        3.08521498772968       -0.32773180705746
C           -6.60956802435764        2.06662355193829        0.39833275903654
C           -5.21480027762783        1.87982616674299        0.40086585441780
C           -4.58281786019251        0.83710039575086        1.14199370294034
N           -5.30744344996364       -0.01207523847677        1.94128327536416
C           -3.21102531454931        0.59170999305137        0.97912708216306
C           -2.41080389348494        1.37680538749438        0.18133490509255
C            1.29007714778173        1.95737840340550       -0.12352065083455
C            2.25435277960557        3.06190487118596       -0.02487955162881
C            2.12678911822213        4.01452079225450        0.99125353710455
C            3.05349486076240        5.02682785250049        1.13071483498809
C            4.13776066150037        5.13195256140051        0.26459865340170
C            5.15407576346635        6.22084832913918        0.43264065073451
C            4.26478749113370        4.18692145731265       -0.74783014381557
C            3.34575800227666        3.16629900097205       -0.89038317155930
C            3.90202714046283       -0.31535187507112       -0.89733235194146
C            5.26109576987904       -0.53850187220841       -0.79548423817975
H            7.94539202433636       -0.18282287804527       -0.56451662284929
H            7.63141650701904       -1.35146955743697        0.71482196659431
H            7.91857257878567        0.34101662939073        1.12705898306148
H            5.84770351541248        1.02746502879506        2.12954296911063
H            3.43602618936027        1.43038643821868        1.94962763709744
H            2.52587648525800       -1.59997348306912        1.78036779532617
H            3.38967590040649       -3.88850138113951        1.76697075440205
H            3.57569083141704       -5.97816931572923        0.84153683461518
H            3.16504762205225       -6.08603620649078       -2.18327022793432
H            4.58170161884768       -5.42517612092174       -1.36495413250768
H            4.20252671440590       -7.14626205960829       -1.22778156429147
H            2.17176870642241       -7.88272896279925        0.15221773577800
H            1.19250880032424       -6.66304077670796        0.97553035741360
H            1.12456638133544       -6.81029991007504       -0.78064318271033
H            1.28188847302279       -4.65955622832435       -1.86558782876550
H            0.42995607673158       -2.37330223172557       -1.85718518301137
H           -0.60359723576474       -2.33213692485485        1.67911623135051
H           -2.05830727602966       -4.28353409279333        1.53546933172771
H           -4.62627931102318       -4.70344351321735       -1.21337085853195
H           -4.32841457019182       -5.06683315346053        1.80436624593983
H           -5.59555924342421       -5.76058035848546        0.79072418319144
H           -5.49337016884500       -4.00909485466394        1.00298106343790
H           -3.84542014329711       -6.96375352533587       -0.63478517106882
H           -2.53371176997939       -6.03485032629985       -1.36970519146152
H           -2.55955614518989       -6.29786418079908        0.37398195984702
H           -3.89072043960813       -2.66557054694033       -1.96582860191892
H           -2.42569709534826       -0.70697088669604       -1.82214893199598
H            1.05624217084634        4.34458681997067       -1.24601539151255
H           -0.38960641660835        5.19416676995819       -1.61447793787172
H           -2.44709494419106        4.51213707538785       -1.14391892535617
H           -4.43427660809154        4.42525097405306       -1.71679886153929
H           -6.85678701539520        4.72765115274863       -1.66374804661375
H           -8.26663037011562        3.21008933551316       -0.31176345319677
H           -7.24528649322306        1.39621206022058        0.95717988691492
H           -6.19271958534043        0.30420091804257        2.29952098531611
H           -4.77888515538046       -0.61719927062244        2.54859876591979
H           -2.78636901427881       -0.24541950031821        1.51099539326046
H            1.29287011106194        3.94254233920628        1.67522496844990
H            2.93948016474789        5.74659641520274        1.92945443318296
H            4.70253815356583        7.10944659035744        0.86863198678983
H            5.60265234173237        6.48327158796405       -0.52316057476376
H            5.95198027940825        5.88700279916946        1.09792756873149
H            5.09762955822199        4.24989057312924       -1.43449716948252
H            3.45954163581231        2.44769859550080       -1.68948688796268
H            3.35619918201664       -0.69165782079195       -1.75138067618968
H            5.77003781750626       -1.09286904004532       -1.57219136007477
