98
 energy: -136.408193294862 gnorm: 0.000042797592 xtb: 6.7.1 (edcfbbe)
C            7.40116735247691       -0.75629243999267        0.37531073059607
C            5.94765628731638       -0.40627551909229        0.25948008621583
C            5.31636675643421        0.34038584124920        1.24723128413352
C            3.97382633042199        0.65172303854071        1.15388393514108
C            3.21940592751720        0.21868984266514        0.06847075562747
C            1.77950152195393        0.54463816623866       -0.02874281377420
C            0.84381401930616       -0.48536271235694       -0.03267938038044
C            1.28409606595269       -1.89041569849293       -0.03626542884260
C            2.11488428249395       -2.39074909329617        0.96262100617328
C            2.52525463882384       -3.70962320857135        0.94397342918976
C            2.12725024010999       -4.57365607470079       -0.06858782287837
C            2.58511025608583       -6.01203021922368       -0.07482831666936
C            3.40677636577470       -6.31966293726338       -1.32935611047579
C            1.39218120302566       -6.96436482732324        0.04215378664878
C            1.29723866117989       -4.07240252709507       -1.06542865611026
C            0.88005333455596       -2.75707732043284       -1.04989048402462
C           -0.54138602451405       -0.17433361907578        0.00402722515005
C           -1.50841195708457       -1.28680869941650       -0.00844762220749
C           -1.46044393806454       -2.31393208749758        0.93241656176924
C           -2.34202543894394       -3.37486218448066        0.86816564166525
C           -3.29624121436510       -3.45674874397587       -0.13970356092001
C           -4.24919371892830       -4.62436640875371       -0.22970786643799
C           -5.15233833618532       -4.69676653329526        1.00446677694963
C           -3.48406663434177       -5.93673381120773       -0.41924498467666
C           -3.34501432147227       -2.42963896525431       -1.07593378112644
C           -2.46933176171695       -1.36394518846419       -1.01472604074333
C           -0.95863632237873        1.15292176983219       -0.01405184476492
C           -0.01066442048084        2.19531646766129       -0.24753045190716
C           -0.50899585654517        3.44605659198518       -0.68533626540813
N            0.30293432384850        4.47326278690932       -1.08991239136333
C           -1.90807088726325        3.67250761837925       -0.78384870644713
C           -2.83297437427645        2.75962397432419       -0.35023370825527
C           -4.26594218891244        3.00546044416214       -0.35307029278442
C           -4.83418141972897        4.01720627331926       -1.12037200157332
C           -6.19836974841840        4.27544314058728       -1.08941093276466
C           -7.02251357141016        3.51365744505828       -0.27839331364161
C           -6.49205317423541        2.48690620945904        0.47612726876387
C           -5.11489340850691        2.19609174932102        0.44958008062109
C           -4.53974874727642        1.12285286892158        1.19298456796894
N           -5.27987484224037        0.38158565220509        2.08037741329730
C           -3.18239142958544        0.80297261246477        1.03179616418310
C           -2.34687238015549        1.52466964835046        0.21176386460969
C            1.37616119403429        1.88337489551501       -0.13263417119022
C            2.40228632431855        2.93140767470811       -0.04085764158236
C            2.33021665448420        3.89370377385986        0.97143341675425
C            3.31658036455601        4.84841617332069        1.10998441788349
C            4.40722195096895        4.88418194509623        0.24668813257961
C            5.49129038092953        5.90567654456077        0.41433557861621
C            4.47721527527326        3.93160112997431       -0.76453460505612
C            3.49817695218751        2.96852413607096       -0.90635391427693
C            3.84734384678996       -0.53368726514168       -0.91814618909952
C            5.19202647284084       -0.83799713297923       -0.82329764480181
H            7.51874733380093       -1.66583406626936        0.96632077503890
H            7.95218941598118        0.04003678507932        0.87133285204236
H            7.83778475704086       -0.93252444033044       -0.60517742754103
H            5.88493652339889        0.68508073259407        2.10011680564114
H            3.49936480448210        1.23115128845956        1.93359390279457
H            2.42905110542900       -1.74255072788825        1.76849759385097
H            3.16700624893732       -4.07449878580334        1.73498564097814
H            3.22972280362247       -6.16582939389896        0.79869616837379
H            2.79806585502986       -6.21826429418052       -2.22460959836211
H            4.24799532568210       -5.63348317429425       -1.40683117428747
H            3.79083188264791       -7.33700765369308       -1.28815786570081
H            1.73622355101603       -7.99535236197122        0.09603187121187
H            0.81930565145739       -6.74210477776361        0.94027721719154
H            0.73355115813279       -6.86529791137476       -0.81716750373345
H            0.96898592312635       -4.71573473109452       -1.86910582876964
H            0.24134234021522       -2.38682552242307       -1.83984766189670
H           -0.73125852412296       -2.27156672347449        1.72919717683764
H           -2.27660547858477       -4.15318869242341        1.61477946672626
H           -4.88734521958953       -4.47400879366408       -1.10850390870386
H           -4.56329739713990       -4.84710557700134        1.90600419617501
H           -5.85252521034096       -5.52422208289431        0.90956477340500
H           -5.72078063597692       -3.77514506842580        1.11220113319514
H           -4.17965699779124       -6.76205604098678       -0.55768603208153
H           -2.84042637004927       -5.87483782548955       -1.29451069422291
H           -2.86356804463870       -6.15163681107849        0.44719399664794
H           -4.07551919546563       -2.46919386609494       -1.87298272712209
H           -2.51906767251767       -0.58069319109202       -1.75869581530493
H            1.27402189272966        4.27411887767002       -1.26612285772738
H           -0.12335018351994        5.20029049019317       -1.64096255172497
H           -2.21809078643988        4.63073852797720       -1.17230320908907
H           -4.21053515539557        4.61272445493546       -1.76904058490568
H           -6.61005067474876        5.06911824982910       -1.69524781806379
H           -8.08342007824160        3.71605682212144       -0.23955192866369
H           -7.15806585380226        1.90512409807564        1.09606019475969
H           -6.28093765517414        0.37071686371488        1.98050948999187
H           -4.86491750582621       -0.47981855424418        2.39760520262415
H           -2.80043802467616       -0.04772259798504        1.57466565090155
H            1.49254065180746        3.87426845372652        1.65437360802694
H            3.24475734420906        5.57577082653636        1.90673708772749
H            5.91097173392357        6.18692261462067       -0.54939705299137
H            6.29798653294892        5.49613640747549        1.02436822242503
H            5.11244725729296        6.79673746961081        0.90995285548783
H            5.31358458330675        3.94252070854745       -1.44973020251746
H            3.56934471254460        2.24273005219629       -1.70383949959068
H            3.27683703712808       -0.87456911933663       -1.77098540208177
H            5.66182075468487       -1.42021522684918       -1.60427856268949
