89
 energy: -134.982930539044 gnorm: 0.000092668025 xtb: 6.7.1 (edcfbbe)
C           -2.48329191098081       -5.81593691268086       -2.05968118241542
C           -3.27992140026633       -5.89594367069532       -0.92798177412653
C           -3.68121329854867       -4.74892509094713       -0.27149230066927
C           -3.29268824541386       -3.49428458259110       -0.74680639538814
N           -3.69107528647747       -2.33170440276337       -0.08316386430800
C           -4.95134314113438       -2.26028251616783        0.51773963970306
C           -6.06171558517127       -2.85031347574213       -0.08879295159091
C           -7.30281665643594       -2.77548032025342        0.51272880485552
C           -7.45893983713779       -2.11113716270638        1.71948283963710
C           -6.35982909667203       -1.52182758588058        2.32442235997682
C           -5.11390963920582       -1.59325270583095        1.73330416968567
C           -2.83143891116358       -1.22819546657346       -0.02682260418253
C           -1.46637235374744       -1.41811874848181        0.11925038822924
C           -0.56602087797852       -0.33078160586319        0.14658430467652
C            0.84808901863034       -0.52749893943000        0.26161086085406
C            1.46368180825086       -1.77385099981067       -0.04795628336652
C            2.81030347459522       -1.94283050724943        0.00396312428546
C            3.68744521245254       -0.87523832383580        0.36226740448981
C            5.07087217099810       -1.11202035218017        0.35074898527158
N            5.59094767797591       -2.35385556966164        0.30982164163736
C            6.92120210064549       -2.21570449215580        0.42490897774271
C            7.92841720548072       -3.18968485330134        0.44731880041950
C            9.23610791255954       -2.76394730258138        0.53499052159281
C            9.56500348803207       -1.40809778684308        0.59373391734404
C            8.58632014924739       -0.42155576530582        0.58275191491681
C            7.27161732654421       -0.83473361847131        0.51726095512953
N            6.08219731800580       -0.14466476626560        0.46039249559887
C            5.98392344155912        1.24021342674649        0.27065518310347
C            5.30000822380763        1.75284353916834       -0.83190721047203
C            5.23086027052444        3.11856920986302       -1.02547030178672
C            5.85027945238742        3.98458133041342       -0.13706668410559
C            6.53695230888670        3.47673223343525        0.95404907398097
C            6.60577465816057        2.11126953998303        1.16215934666710
C            3.07131799616582        0.34999553610170        0.74740053769338
C            1.72141970580851        0.50932919783878        0.69171715730567
C           -1.12691420325274        0.96289060742734        0.05379797716866
C           -2.49207318801551        1.15570155105919       -0.09053650629099
N           -3.00811320903751        2.45144130158180       -0.21869030799522
C           -4.23524447479186        2.77124741259833        0.37004224093405
C           -4.57531256025406        2.24734358601631        1.61853242717550
C           -5.78825802309147        2.56446845598976        2.19738018372543
C           -6.67809875556987        3.40538984758138        1.54751976873515
C           -6.34492970507578        3.92931994437412        0.30806975306202
C           -5.13562389844738        3.61621710112249       -0.28129785509932
C           -2.30610119837939        3.41650234175064       -0.94496689087570
C           -1.58730388079481        3.06058926872643       -2.08826475712932
C           -0.88989010855785        4.01883771682443       -2.79717131037417
C           -0.90036107556930        5.34287928234120       -2.38628951735931
C           -1.61402741924645        5.70253926170495       -1.25347879190314
C           -2.31075236160541        4.75140982739039       -0.53413233251808
C           -3.36135973370080        0.06168537233327       -0.13600983499763
C           -2.49616218626591       -3.41982851454287       -1.89185149947043
C           -2.09437148774106       -4.57330217093237       -2.53602882907989
H           -2.16753530027449       -6.71498287356769       -2.56676206003986
H           -3.58250034318156       -6.86001776627001       -0.54664977551118
H           -4.28594775809499       -4.81601716629887        0.62076368885194
H           -5.94341309406301       -3.35687009013481       -1.03533192457112
H           -8.15521989774920       -3.23260730525074        0.03219036125784
H           -8.43060067170913       -2.05466612993123        2.18617238178712
H           -6.47234988674419       -1.01236159765709        3.26962334486828
H           -4.25382895225621       -1.14935792684437        2.21169389361690
H           -1.09787658146208       -2.42258433198298        0.24995463236986
H            0.85195707252357       -2.60170716936307       -0.37326707123010
H            3.26503646433707       -2.88690017523588       -0.25398175630768
H            7.67069581509558       -4.23580600867609        0.39165674710043
H           10.03274234290443       -3.49427775082401        0.55274626114470
H           10.60412537720739       -1.11815024523476        0.64720995164679
H            8.85177903030290        0.62491403010112        0.61546646201880
H            4.82487357837545        1.07085864402144       -1.52211363784470
H            4.69703805790439        3.50879343559519       -1.87940028285093
H            5.79702282861796        5.05126254872257       -0.29438640341888
H            7.01794257849903        4.14652009540596        1.65186541585243
H            7.12332326603696        1.71119015017512        2.02193655414862
H            3.68211934694897        1.15211759476037        1.13372495089559
H            1.30302471179452        1.44511733005359        1.03191076867712
H           -0.48372030535622        1.82764483995825        0.07016991117791
H           -3.87508811102980        1.60511986185420        2.13117545842428
H           -6.03677561041135        2.16120482980914        3.16756793783262
H           -7.62453609534629        3.65192603480632        2.00426737304953
H           -7.03479436701107        4.58120221987501       -0.20728522209797
H           -4.88229702396371        4.01479312275714       -1.25266322726264
H           -1.58704222466979        2.03183721158790       -2.41667240238316
H           -0.34069802656476        3.73092070748696       -3.68151621620314
H           -0.35546759965600        6.08895910908404       -2.94455354278443
H           -1.62081965067073        6.73053616714929       -0.92219611041921
H           -2.85343574489165        5.03123976042148        0.35677505298466
H           -4.41937749815676        0.20831360839979       -0.28234864474094
H           -2.20115349461212       -2.45324741168757       -2.27249313570552
H           -1.47872081408605       -4.50118417521371       -3.42052517837126
