89
 energy: -135.070079266904 gnorm: 0.000036395209 xtb: 6.7.1 (edcfbbe)
C           -2.73377749979339       -5.98562901547844        1.64029624340106
C           -2.38916791776690       -4.79627500982212        2.26214375597355
C           -2.67128371373499       -3.58454156734936        1.66128376115000
C           -3.29827852212805       -3.54598691027543        0.41580381408064
N           -3.58225912191907       -2.32044356001364       -0.20047552378732
C           -4.77716030243185       -2.15795776641952       -0.91252289659583
C           -4.80615975378868       -1.40620896767728       -2.08724070456814
C           -5.98852939472825       -1.24713334631807       -2.78393606023909
C           -7.15599765700076       -1.84016342862371       -2.33081542865611
C           -7.13194083875956       -2.59261745664951       -1.16756586247854
C           -5.95653286610294       -2.74814951828377       -0.45824653369091
C           -2.67667292780138       -1.25927454709226       -0.09607536394823
C           -1.30436509711543       -1.50169032907269       -0.11156723540032
C           -0.40248895237763       -0.44973279039332        0.00012529934232
C            1.04595940464265       -0.70543821994292       -0.01912245627171
C            1.59395489404915       -1.64321758547114       -0.89347792463518
C            2.95527634848381       -1.86123494155466       -0.93202713186444
C            3.81145140343276       -1.14195686166865       -0.09857988010115
C            5.24240256791388       -1.39522167316481       -0.17293523781392
N            5.74953720304762       -2.58134529760940       -0.38411034733775
C            7.10857681181178       -2.42506892161291       -0.34978870291159
C            8.12688953060458       -3.35728623864127       -0.52120839359978
C            9.42752745920967       -2.90402254290767       -0.45586420946020
C            9.72384679028355       -1.55716718483762       -0.23361891648446
C            8.72916221005836       -0.61559864865590       -0.05815529256403
C            7.41964857454193       -1.06669126365833       -0.10425518461731
N            6.20602809543120       -0.42431502314516        0.00729159864782
C            6.02182884238353        0.96430223240723        0.14385442881407
C            5.21558013724115        1.65281437921944       -0.75720782296625
C            5.04168333975669        3.01740233928230       -0.61763970811857
C            5.67754610524239        3.70173703859893        0.40592902391648
C            6.48902052860383        3.01699873366553        1.29523537268920
C            6.66145086447049        1.64960246815704        1.17104709538543
C            3.26555151833544       -0.22729544704592        0.80078329717398
C            1.90294987973208       -0.01153966705237        0.83341072168129
C           -0.87643488458242        0.85199481635691        0.11998715375424
C           -2.24602547495280        1.10801973155917        0.11554053378170
N           -2.72025671589601        2.42003478546005        0.22543001422631
C           -3.89093509618229        2.68305015899259        0.94863464956104
C           -4.16513257958078        1.99117472703664        2.12843883784388
C           -5.32208814399268        2.25235595026240        2.83692593466024
C           -6.21823465649289        3.20993157278575        2.38980020231821
C           -5.94894465971132        3.90332958428668        1.22080602223712
C           -4.79926247276658        3.64191800275629        0.50039113687568
C           -2.02955663852553        3.46985453937579       -0.39191596016336
C           -1.42170667758450        3.28663352498003       -1.63429642553505
C           -0.73789239453049        4.32555302487046       -2.23588942588469
C           -0.65607771920172        5.56360047299305       -1.61896073585279
C           -1.26180851662376        5.75287581919869       -0.38714763655917
C           -1.93876822698426        4.71685811340807        0.22713435410655
C           -3.14179495612502        0.04812312136038        0.01130955643035
C           -3.63911321868496       -4.74640617448958       -0.20757317688948
C           -3.36095686024899       -5.95319817215489        0.40510384094140
H           -2.51474296231217       -6.93062173267342        2.11440074334528
H           -1.90394658252564       -4.81124617444120        3.22739643415779
H           -2.40860215711989       -2.65901499540218        2.15270637559551
H           -3.89550383503162       -0.95200566178331       -2.44981246008618
H           -5.99592101603864       -0.66297273405008       -3.69288953797460
H           -8.07735690217537       -1.71727405828500       -2.88018426189965
H           -8.03794099392728       -3.05506180965523       -0.80339425865377
H           -5.94308073445911       -3.32743148880424        0.45365167986879
H           -0.94444369036367       -2.51587544373113       -0.19078729718324
H            0.94738335791011       -2.18940711892643       -1.56404182124968
H            3.38112756942100       -2.58302736294223       -1.61226513221919
H            7.89299733314134       -4.39430229745534       -0.70457554823846
H           10.24114019075953       -3.60274868763721       -0.58539648038201
H           10.75746182499331       -1.24548826180572       -0.20093897220910
H            8.96293510753796        0.42643121405145        0.10132834362824
H            4.72846211670200        1.11406425195755       -1.55656176910546
H            4.41031149400579        3.54759084538142       -1.31466517616995
H            5.54155511106205        4.76760471558040        0.50918948444327
H            6.98621108764186        3.54592584148692        2.09465792370357
H            7.27801051640351        1.10619403825928        1.87201985500486
H            3.90551533986687        0.30622348801451        1.48802436731695
H            1.49448786643390        0.69129098286275        1.54427809015259
H           -0.18162833303632        1.67421081696112        0.19557913572840
H           -3.46375176950118        1.25101552624792        2.48533980982934
H           -5.52057697372026        1.71005583396503        3.75013197419804
H           -7.11925997480385        3.41458754072452        2.94843580406402
H           -6.64402201463532        4.64827690917671        0.86120663797730
H           -4.59707720693668        4.17764761579304       -0.41577098364749
H           -1.49186086003246        2.32620525265208       -2.12383696328296
H           -0.27399822845303        4.16923409079042       -3.19915071777385
H           -0.12531043043832        6.37461599975871       -2.09472366282733
H           -1.19968114883311        6.71281545112163        0.10485085164550
H           -2.40158121566207        4.86558323058346        1.19195671122664
H           -4.20401141137565        0.24130664844725        0.01391030205201
H           -4.12093438434945       -4.72442565797622       -1.17433386626807
H           -3.62863314128181       -6.87532986816771       -0.09022608479545
