89
 energy: -134.982924154703 gnorm: 0.000030791454 xtb: 6.7.1 (edcfbbe)
C           -2.45658869016062       -5.83948081644156       -2.09353001714117
C           -3.24545384844453       -5.92607616985199       -0.95689267462187
C           -3.64704338843661       -4.78264986404225       -0.29440703134415
C           -3.26696914564415       -3.52493428799581       -0.76856840054684
N           -3.66655666709918       -2.36626590768392       -0.09921870012929
C           -4.92193235770902       -2.30346593307262        0.51321935883543
C           -6.03511585481965       -2.89576509885975       -0.08575948742385
C           -7.27140410595195       -2.82704671538257        0.52640004365442
C           -7.41977491777900       -2.16680845217029        1.73637547750207
C           -6.31763667855051       -1.57593841662721        2.33423017317576
C           -5.07647995123525       -1.64144387420844        1.73256894643169
C           -2.81459346335714       -1.25659704854005       -0.04741487627911
C           -1.44687481704913       -1.43546612982648        0.08686103872880
C           -0.55604019137889       -0.34031979258568        0.11348808800773
C            0.85997523228766       -0.52506052840967        0.22462211362884
C            1.48656105362616       -1.76336844360740       -0.09459080286870
C            2.83431871733611       -1.92207343189577       -0.03892395739434
C            3.70132976075925       -0.85117203860741        0.33390832781887
C            5.08641409854185       -1.07839120040122        0.33271957481125
N            5.61550610296108       -2.31629120403287        0.28792627704881
C            6.94357271539545       -2.16983965489876        0.41758530020983
C            7.95744834364312       -3.13681248289128        0.44369321620973
C            9.26117836080262       -2.70246117286550        0.54726050299036
C            9.57987413524063       -1.34478153222563        0.61836638040153
C            8.59435249673970       -0.36512289551616        0.60428253221962
C            7.28334109190058       -0.78714032277990        0.52311087268225
N            6.08985877091618       -0.10495572818214        0.45931265816841
C            5.98403093531172        1.28096054308334        0.28098013194395
C            5.31025316149971        1.79875898170925       -0.82537425254612
C            5.23366450524313        3.16569741496615       -1.00744861307227
C            5.83532833550931        4.02792856306015       -0.10330140116947
C            6.51217103099854        3.51503186366340        0.99158053168896
C            6.58848117752556        2.14824013872037        1.18802003708188
C            3.07423797984338        0.36680601711553        0.72413777728901
C            1.72337447746060        0.51594791515291        0.66432856105822
C           -1.12819952579426        0.94900518741880        0.02939185895349
C           -2.49603030971044        1.13057915192971       -0.10215978030234
N           -3.02554981143234        2.42252798411071       -0.21537905122415
C           -4.24370150422047        2.72727477830190        0.39924149043973
C           -4.55475710028955        2.18972073327369        1.64953555225803
C           -5.75881347291504        2.49097806363121        2.25468800048115
C           -6.66837896311974        3.32962428044828        1.62965715434139
C           -6.36400353734249        3.86717517856839        0.38863319787502
C           -5.16381913847519        3.56985967099102       -0.22704029289469
C           -2.34248339800150        3.39851497854383       -0.94453593366363
C           -1.63567779390947        3.05601757450870       -2.09940310216025
C           -0.95609040886389        4.02473431756300       -2.81138220040935
C           -0.97260499840373        5.34607146068926       -2.39203676446039
C           -1.67444883521764        5.69239993702933       -1.24773444646904
C           -2.35332205279651        4.73080908216020       -0.52528272241246
C           -3.35614546739541        0.02942424067846       -0.14615914032705
C           -2.47801293253369       -3.44389936622273       -1.91841913081913
C           -2.07565095429406       -4.59385511261493       -2.56849851032460
H           -2.14069877897892       -6.73571373218100       -2.60547845952838
H           -3.54158936687251       -6.89248768915173       -0.57641095858227
H           -4.24548640012581       -4.85495241896484        0.60166522900514
H           -5.92296052661156       -3.39891572707658       -1.03486318671655
H           -8.12624746040094       -3.28558598921488        0.05158380480123
H           -8.38778215796641       -2.11471980570740        2.21107914422377
H           -6.42397912508712       -1.06978211160281        3.28189677388633
H           -4.21384409433247       -1.19639748670390        2.20522185848357
H           -1.06830688977951       -2.43709354632634        0.21065233915768
H            0.88231413343578       -2.59259914058539       -0.43036687128886
H            3.29773296468093       -2.85998960970879       -0.30379913798735
H            7.70799964911834       -4.18436555888046        0.37838322317178
H           10.06273159642893       -3.42729780926281        0.56823950009221
H           10.61631667402519       -1.04790065934448        0.68422645222155
H            8.85186598546302        0.68296175478457        0.64673594059212
H            4.84874005557888        1.11970004839023       -1.52762772089496
H            4.70804155800669        3.55991233647871       -1.86464007376846
H            5.77624309064563        5.09561858620914       -0.25150374691485
H            6.97945633195925        4.18179652127628        1.70150566013392
H            7.09863511110058        1.74410388184971        2.05032253830218
H            3.67719315143885        1.17096982016855        1.11838276813208
H            1.29616123525965        1.44585601291631        1.00962841722640
H           -0.49212697973236        1.81907040483524        0.04424358884355
H           -3.83883859793209        1.54960539207637        2.14280386402490
H           -5.98461386448839        2.07721005203456        3.22601362757653
H           -7.60779087525371        3.56388504203033        2.10690152815955
H           -7.06944405419042        4.51741449507731       -0.10734857514994
H           -4.93305270023279        3.97909901148134       -1.19959488694794
H           -1.63065810572915        2.02929492571049       -2.43407439403988
H           -0.41613944469292        3.74718163012626       -3.70468263973917
H           -0.44165097159107        6.10039984351007       -2.95265255037246
H           -1.68565563491527        6.71820108477200       -0.90980290589831
H           -2.88630815487573        5.00039002324948        0.37458570210983
H           -4.41663919332918        0.16804506371088       -0.28199804312484
H           -2.18949927561072       -2.47504497092938       -2.29824995708194
H           -1.46602230066354       -4.51666054477436       -3.45672683859715
