89
 energy: -135.071061933623 gnorm: 0.000057084484 xtb: 6.7.1 (edcfbbe)
C           -2.54891016179954       -5.85680294144807       -2.03255407529241
C           -3.31837791747430       -5.91125148608349       -0.88157217950845
C           -3.68980174284836       -4.75025142922859       -0.23094981725409
C           -3.30309331381918       -3.50734537170554       -0.73268440545159
N           -3.67545724276092       -2.32839913883370       -0.07618369886332
C           -4.93105279785103       -2.23210549774813        0.53725281919385
C           -6.05667857737767       -2.80176473498676       -0.05724351489325
C           -7.29083379555002       -2.70878224469889        0.55698996738042
C           -7.42575260353814       -2.04238236563244        1.76430683680806
C           -6.31117747571815       -1.47184546525547        2.35725253872966
C           -5.07205371541911       -1.56589950766959        1.75421554942600
C           -2.79723062376816       -1.23966682720849       -0.04177716132534
C           -1.42500283085895       -1.44785291862571        0.08311778287483
C           -0.54653068483756       -0.37038501854667        0.08912760716315
C            0.90324620029949       -0.59262659456130        0.19701417039974
C            1.51022328406930       -1.65981721387096       -0.46485452282775
C            2.87434609285874       -1.85106341700357       -0.39481309807989
C            3.67531298091932       -0.97325601229917        0.33471120914732
C            5.11237681076609       -1.19827283196188        0.37852446490177
N            5.65190546209783       -2.38727744352042        0.43337931093940
C            7.00413747380093       -2.18746924248904        0.50065623080005
C            8.04683722801176       -3.10552597859343        0.57176774767771
C            9.33354544431905       -2.61130811814029        0.60980448666168
C            9.59286256545967       -1.23939386025385        0.56894713405034
C            8.57320130782895       -0.31062552915575        0.50069911444859
C            7.27634749885991       -0.79891586718758        0.48261350667409
N            6.04640365736674       -0.18304786169010        0.40524134600749
C            5.82270581995655        1.19792309236634        0.25261723794201
C            5.04015015225130        1.66404238894789       -0.79929177551314
C            4.82225619900147        3.02182056414652       -0.94281245564467
C            5.39248455786210        3.91861640677375       -0.05347573628145
C            6.18071144169549        3.45410537771618        0.98628076152929
C            6.39585512813239        2.09644678250600        1.14585599203502
C            3.07017974418392        0.07536321850800        1.02578571881136
C            1.70471325451101        0.26076836472168        0.95386875459316
C           -1.04839777387491        0.92331747111825       -0.00549949384217
C           -2.41875377078590        1.14336224628186       -0.12890751720672
N           -2.91723838970281        2.44521632576186       -0.24579695297958
C           -4.14036935144519        2.78184650580885        0.34901792768652
C           -4.48078834983034        2.27424923171503        1.60246459139286
C           -5.68762743638597        2.60915889471080        2.18511841737222
C           -6.56976415576818        3.45710331702322        1.53534553321141
C           -6.23492138835797        3.96772221105496        0.29154923423483
C           -5.03310002720328        3.63288260709360       -0.30208937529288
C           -2.20234967918284        3.41192239696866       -0.96346645763454
C           -1.51075755364065        3.06783590978673       -2.12524114760665
C           -0.80491620560130        4.02682316827038       -2.82595271750341
C           -0.78281838716891        5.34181799020471       -2.38962723346743
C           -1.47185065986820        5.69041823401682       -1.23905719050718
C           -2.17261384961317        4.73648363517490       -0.52634846476432
C           -3.28896212526283        0.05729860754373       -0.15412275754010
C           -2.53807327639308       -3.45855524172293       -1.89850735796876
C           -2.16123814812490       -4.62516631914648       -2.53527916746672
H           -2.25494121035089       -6.76642644273865       -2.53444211209806
H           -3.62406893171457       -6.86654610617124       -0.47993048175758
H           -4.27954604222934       -4.79832469269176        0.67293139437055
H           -5.95544422128686       -3.31564557525332       -1.00224053723463
H           -8.15492583191679       -3.15345581846108        0.08473796156309
H           -8.39211853567018       -1.96962094716238        2.24029028047176
H           -6.40572424258446       -0.95845165898949        3.30281915074580
H           -4.20173279884927       -1.13084497252308        2.22313074689657
H           -1.04963926129879       -2.45327896134284        0.19512237178702
H            0.90883703457989       -2.33304325426380       -1.05727926566582
H            3.34457427973233       -2.67441286493616       -0.91064687534548
H            7.84152352272990       -4.16441383153774        0.59020521521480
H           10.16532204595957       -3.29832382704217        0.66527611331861
H           10.61735777017735       -0.89799697408322        0.58935108596901
H            8.77949205831742        0.74837323382401        0.45745993580479
H            4.60550889996638        0.95958642233942       -1.49310761362314
H            4.20888122486283        3.37947310711995       -1.75607778377711
H            5.22268845611567        4.97812585995286       -0.17105869981020
H            6.62630901480725        4.14913847252855        1.68229678186298
H            6.99391622844452        1.72640421555945        1.96568369098766
H            3.66632449239903        0.73826641274550        1.63564850908115
H            1.25073033382273        1.06859751781574        1.50818972165676
H           -0.37374981310658        1.76543148103090       -0.00763190092420
H           -3.78977641121701        1.62153862398804        2.11521373312161
H           -5.93678430067183        2.21344005923439        3.15868707434219
H           -7.51082386821303        3.71906092564389        1.99523392296849
H           -6.91780764911098        4.62680920315194       -0.22477661289319
H           -4.77731500620496        4.02655261904094       -1.27517869214448
H           -1.53418156783456        2.04574787347071       -2.47414455102636
H           -0.27630039744632        3.74621859933801       -3.72559741446529
H           -0.23418001552160        6.08950577252552       -2.94257536925066
H           -1.45705875431140        6.71216976612689       -0.88804751662842
H           -2.70177579099709        5.00984272403619        0.37503956086507
H           -4.35002871930849        0.22106817809995       -0.26945323705979
H           -2.24340113806235       -2.49999946988176       -2.30043059166831
H           -1.56773616517530       -4.57139150960886       -3.43667965812100
