118
 energy: -154.869607152631 gnorm: 0.000043852211 xtb: 6.7.1 (edcfbbe)
C           -7.36712195044095        2.62124395637198       -2.08722003927877
C           -6.96961062338680        1.17494521773326       -1.75543811914419
C           -7.22916984916726        0.31106813003288       -2.99326103642033
C           -7.84557544897768        0.64445295115725       -0.61101182123118
C           -5.51369972811317        1.14945613072368       -1.31761119068445
C           -4.52651882908312        0.44457542455956       -1.99661896292714
C           -3.21475738111169        0.44474982849473       -1.56264623120357
C           -2.82940903330657        1.15918371534994       -0.43180405358832
C           -1.42039716616575        1.18356093930560       -0.02473877083325
C           -0.73560793876673        2.43324143162661        0.02234598748536
C           -1.36369730115215        3.65376964963427       -0.25881544164492
C           -0.72137752918673        4.85754484577393       -0.05857244782501
C            0.57685571071360        4.91161200452318        0.45474052675185
C            1.21900798491559        6.26052638819124        0.73559303715426
C            0.34560688852736        7.03196399744700        1.73674963420465
C            1.31919894372912        7.04879088466432       -0.57938737769028
C            2.62607866967595        6.13685833615839        1.32837236753373
C            1.23324006454003        3.70787482048838        0.66302344118557
C            0.63633255249782        2.46779697573196        0.39676060952345
C            1.36990598836065        1.24348121759819        0.45918694732738
C            2.77489294445785        1.27511476599834        0.88729277709131
C            3.74016095003825        2.01901548752924        0.20879918062101
C            5.04026076175577        2.07547510106389        0.67222041919337
C            5.40104274223181        1.40141345403889        1.82703385755393
C            4.45133443770019        0.66010646815061        2.51032105751072
C            3.15245337946689        0.59545695413999        2.04497369692116
C            0.72279519328925        0.01532423988635        0.22011778874658
C            1.42119787579433       -1.18635657644744       -0.01281918746015
C            2.83084884246772       -1.16478224328108       -0.41773147248418
C            3.81396299972569       -1.87859588581674        0.26602158773646
C            5.12376032760457       -1.86677314137174       -0.16426125462800
C            5.51637780169655       -1.16113228406220       -1.29989215974084
C            6.97279489559666       -1.18999929527201       -1.73583139282884
C            7.36944376445933       -2.63842457458138       -2.05928033030969
C            7.23440270550145       -0.33302416502832       -2.97801841929233
C            7.84799093177723       -0.65396411607799       -0.59339986729991
C            4.53017391997746       -0.46077044021404       -1.98498490541195
C            3.21782929863782       -0.45797322811446       -1.55282885949472
C            0.73625308612074       -2.43567582464828        0.04214010786817
C            1.36462689017059       -3.65834203777522       -0.22891885560097
C            0.72137689463265       -4.86053355266350       -0.02203530789206
C           -0.57803746853183       -4.91070163733477        0.48867346712574
C           -1.22222757529022       -6.25742700586743        0.77542811813052
C           -2.62864196113898       -6.12897071615582        1.36877713354808
C           -0.34986150145853       -7.02728076020215        1.77866622970088
C           -1.32472422036085       -7.05000389299124       -0.53680064021724
C           -1.23435473781621       -3.70534251022796        0.68746500302869
C           -0.63650149656408       -2.46734016465076        0.41382616752773
C           -1.37012955590352       -1.24260609143294        0.46567664880971
C           -2.77611768130113       -1.27112909638662        0.89076369114072
C           -3.73982407979566       -2.01966472613541        0.21515841502480
C           -5.04099531446994       -2.07292446445816        0.67592727141492
C           -5.40444063612775       -1.39102588125917        1.82529396273862
C           -4.45635679409678       -0.64488719325906        2.50555505134585
C           -3.15640566505174       -0.58340152926125        2.04275768586019
C           -0.72250955102047       -0.01630061827662        0.21871054370866
C           -3.81347483975799        1.87760886463643        0.24571737128099
C           -5.12268563738442        1.86276651160567       -0.18622225389207
H           -6.74079910823419        3.00963461114386       -2.88832583650624
H           -7.25465408192526        3.26997678485626       -1.22263638057603
H           -8.40536694172399        2.66013180037104       -2.41074569156115
H           -8.28508973401495        0.35762174442115       -3.25303188450017
H           -6.97452680532491       -0.72916297369715       -2.80332403331475
H           -6.65801072558321        0.66788819059273       -3.84746951307747
H           -8.88890761758065        0.61621716956592       -0.91908462465516
H           -7.76842546906916        1.27293399578148        0.27185758031432
H           -7.53460245941800       -0.36195604104112       -0.33957381457388
H           -4.76605825952548       -0.11994172877089       -2.88333835915560
H           -2.46782163333746       -0.10916931755846       -2.11493555032214
H           -2.37510392959706        3.65390301449383       -0.63639198453012
H           -1.25359856332016        5.76765877012187       -0.29085461924168
H           -0.65285885534015        7.20274313826603        1.34365119693365
H            0.25567445366008        6.47200422589807        2.66578647885241
H            0.79434234257414        7.99825805115145        1.95800115692946
H            0.33800897150286        7.22027187870150       -1.01380680860185
H            1.92088031856797        6.50040249990823       -1.30187799928196
H            1.78767211510968        8.01473223640217       -0.40190861055727
H            2.61053075718156        5.58206129630544        2.26404310738593
H            3.30312997496217        5.64291296818073        0.63531975585429
H            3.02095286976303        7.13038892898186        1.53207881238084
H            2.24347290242412        3.70578426007921        1.03431933794133
H            3.46764258978179        2.53403750537126       -0.70140135670543
H            5.77612336135117        2.65363453265826        0.13099434185380
H            6.41620785846336        1.45295114859562        2.19260285683493
H            4.72437312985282        0.13284807528358        3.41345391770689
H            2.41023524302356        0.02313222883428        2.58414866883640
H            3.54833585227205       -2.42359235102481        1.16101791763308
H            5.85312009353979       -2.42416017968801        0.40475368505856
H            7.25515898054423       -3.28235693224335       -1.19134859713375
H            8.40808311995804       -2.68003491915716       -2.38121125119062
H            6.74381630401461       -3.03054834440839       -2.85911007699464
H            6.66431823893351       -0.69427807959069       -3.83107435924368
H            6.97985809341762        0.70830874970746       -2.79407050994784
H            8.29066047455037       -0.38140318857566       -3.23607762150172
H            7.76999458178338       -1.27788233240791        0.29262302786835
H            7.53718493084425        0.35394590211600       -0.32738750578362
H            8.89157590953745       -0.62768428298582       -0.90078807137303
H            4.77095756747012        0.09770762554666       -2.87518484844621
H            2.47167166169509        0.09224700931683       -2.10986053164036
H            2.37689790734940       -3.66145262695545       -0.60415541063680
H            1.25371467066822       -5.77237910657151       -0.24715470070605
H           -2.61151604815048       -5.56933892654530        2.30154359119561
H           -3.30574738414563       -5.63780029477059        0.67382122215997
H           -3.02458688593864       -7.12094716200375        1.57792559430824
H           -0.25752588153558       -6.46413099252754        2.70552563239444
H           -0.80102182118436       -7.99150822287515        2.00399999576055
H            0.64773067988692       -7.20242256488615        1.38532169403197
H           -0.34412602919811       -7.22365789746825       -0.97172438986440
H           -1.92673017090832       -6.50344609227916       -1.26040638510825
H           -1.79387402891908       -8.01493538747517       -0.35563412646117
H           -2.24537407356847       -3.70032505194041        1.05658418738379
H           -3.46518069372035       -2.54096670652596       -0.69082019653361
H           -5.77561004245497       -2.65476387075729        0.13695267412731
H           -6.42043053639135       -1.44012324294951        2.18889363318200
H           -4.73146275261384       -0.11133778394622        3.40435758806783
H           -2.41550641290470       -0.00728006759368        2.57968696115257
H           -3.54901964921660        2.42874928520632        1.13728822081543
H           -5.85285328706081        2.42391094350953        0.37804720767693
