118
 energy: -154.916346241696 gnorm: 0.000026408549 xtb: 6.7.1 (edcfbbe)
C           -8.03379382945195        1.68163044143305       -0.47358234510974
C           -7.06829269564167        1.10279369306817       -1.51226389069522
C           -7.16019080500136        1.95986253024069       -2.78400116706187
C           -7.50901413207534       -0.33490170955197       -1.82178962881761
C           -5.62561415012438        1.09149676109169       -1.03010422561149
C           -4.62973543331110        0.56399179930708       -1.84870969561207
C           -3.30647162668381        0.54517831575527       -1.45795896822004
C           -2.92152777263874        1.06030178475128       -0.22440787626097
C           -1.48671847260141        1.12117944611572        0.12025648590709
C           -0.87368763190024        2.37522123435859        0.15910039868720
C           -1.58888556433528        3.58552643364869       -0.05679508280983
C           -1.00307639346360        4.79735456081834        0.11262772214360
C            0.35115169450082        4.91864157916724        0.52663173429129
C            0.92373427792765        6.30644968483515        0.76451193585590
C            2.38332026045935        6.27036741631051        1.22794095480037
C            0.09469612768419        7.01093245517398        1.84897440815939
C            0.85557229223182        7.10827251304706       -0.54403832504570
C            1.07415586864644        3.77313786655294        0.67700553284100
C            0.52305837479914        2.48068871240463        0.44832950894590
C            1.30961522173566        1.32529550776720        0.47848609473955
C            2.74116861746050        1.46635435701141        0.81983074541802
C            3.63293936330482        2.14075992563569       -0.00891286196214
C            4.94386745811838        2.33731226811775        0.38217362575663
C            5.38055964771458        1.87553877029310        1.61252602454965
C            4.49901263642285        1.21126144127277        2.44813080988636
C            3.18872576110298        1.00948838838685        2.05591745679129
C            0.71864772559905        0.05323122468855        0.29880412124368
C            1.48662458639421       -1.12118208030422        0.12041899140612
C            2.92156358513164       -1.06022400082199       -0.22368876114722
C            3.90678755797389       -1.59935292631785        0.59351995625568
C            5.23291709487780       -1.60483388625804        0.20159476685373
C            5.62595751061505       -1.09126778834959       -1.02837025706445
C            7.06881738100337       -1.10247009146621       -1.50998347161932
C            8.03390907220445       -1.68159616591116       -0.47108187426491
C            7.16116260554354       -1.95921281981955       -2.78190838254671
C            7.50969197362149        0.33529708155910       -1.81896182852127
C            4.63041827511276       -0.56340602443709       -1.84715787825491
C            3.30700610472181       -0.54466874601550       -1.45690361706167
C            0.87357289646805       -2.37523408976023        0.15867128913558
C            1.58884897049190       -3.58547947983061       -0.05730261565212
C            1.00300330202509       -4.79735625848188        0.11164972936338
C           -0.35137121761071       -4.91875809318986        0.52513874287946
C           -0.92396227119602       -6.30662314476241        0.76265744095684
C           -2.38386991783672       -6.27068561141057        1.22508012628217
C           -0.09555604100091       -7.01090485050642        1.84773740146522
C           -0.85482655929719       -7.10854857079377       -0.54577738283612
C           -1.07444940621855       -3.77330025807399        0.67550836116390
C           -0.52327319066082       -2.48078677420184        0.44738452230810
C           -1.30983249919636       -1.32539857683044        0.47763060876769
C           -2.74149185340446       -1.46653572662758        0.81849829765218
C           -3.63303527529934       -2.14066243381007       -0.01071217683703
C           -4.94407917560245       -2.33730649862626        0.37993916026232
C           -5.38111151785032       -1.87591823390224        1.61031430273240
C           -4.49978964962987       -1.21192444531806        2.44638083593658
C           -3.18939071586178       -1.01004824493367        2.05460026202514
C           -0.71879676272664       -0.05328276759123        0.29854621673517
C           -3.90708466654926        1.59908808237601        0.59262280603044
C           -5.23306761285748        1.60462838486730        0.20020108954801
H           -7.79382441864698        2.71856787789657       -0.24930771505835
H           -8.00923486573455        1.10257413794816        0.44687879250170
H           -9.04894948331139        1.64990248771597       -0.86489811899285
H           -8.18811864144768        1.99521309251295       -3.13931716161642
H           -6.53816510933454        1.55573207618839       -3.57820957843673
H           -6.83085454976251        2.97674978295966       -2.57804179479460
H           -8.54727219519520       -0.34676165460756       -2.14766923238200
H           -7.41706144403081       -0.95164675024364       -0.93054681945531
H           -6.90140063480292       -0.77627053211916       -2.60689112996470
H           -4.88292405223508        0.16142573716404       -2.81836903868268
H           -2.55405751436443        0.13528595754311       -2.11791171899045
H           -2.62434795606077        3.52711492524819       -0.35728715474641
H           -1.58781433202093        5.68802430546462       -0.06172745292372
H            2.48590393174821        5.71482227922201        2.15760975236407
H            3.02307615976295        5.81788487954043        0.47375849094442
H            2.73359929225965        7.28613167980137        1.40113787463305
H            0.12410660501371        6.43929815347491        2.77478234019054
H           -0.94396092719725        7.11972278898566        1.54866960163128
H            0.49846947829051        8.00263590107014        2.04262942721390
H            1.42546937226633        6.60535032021959       -1.32314819877420
H           -0.16865483320057        7.21976694132537       -0.88966287725589
H            1.27475836017840        8.10139352293325       -0.39577551539248
H            2.10856818180735        3.81502712507915        0.97236343078635
H            3.29198485750719        2.50539995266007       -0.96757490819062
H            5.62471299458737        2.86251876215712       -0.27229624911257
H            6.40336447393075        2.03671985519703        1.92150465685140
H            4.83238904905905        0.85286595373718        3.41175595128059
H            2.49700737255310        0.49877211674617        2.71155329962202
H            3.63175896768884       -2.01205932965245        1.55430261406447
H            5.95808800701835       -2.02785293797272        0.87778990896693
H            8.00895256733002       -1.10281687151341        0.44954299476555
H            9.04922428363374       -1.64972053689282       -0.86197028032589
H            7.79388027757399       -2.71860850742797       -0.24721869589897
H            6.83172121195954       -2.97614523902661       -2.57633589467967
H            6.53943938407016       -1.55485712636064       -3.57624005626575
H            8.18922100752858       -1.99449867813382       -3.13684932482524
H            7.41732072433691        0.95183268150681       -0.92761665552337
H            6.90245694848393        0.77685675316295       -2.60424860064388
H            8.54810372329512        0.34722589114267       -2.14434748423036
H            4.88399747699918       -0.16050272770051       -2.81657514000894
H            2.55486681198225       -0.13449189893449       -2.11699375497309
H            2.62440728807104       -3.52699170695435       -0.35744939415953
H            1.58782791555835       -5.68797571301093       -0.06266714860820
H           -2.48715385059712       -5.71523621336210        2.15472905382872
H           -3.02312285993951       -5.81817924772352        0.47048375831316
H           -2.73419176294317       -7.28649120938687        1.39794208049245
H           -0.12569001700481       -6.43920454300106        2.77348193465566
H           -0.49929495571484       -8.00266233677648        2.04119389523059
H            0.94332334507498       -7.11952994743218        1.54813785168716
H            0.16963538176187       -7.21995498366792       -0.89073090040488
H           -1.42428245913085       -6.60577178608722       -1.32530317358740
H           -1.27397987230882       -8.10171115010967       -0.39769848652972
H           -2.10896549686675       -3.81526953518167        0.97048830997256
H           -3.29181190283187       -2.50501593952052       -0.96938752311802
H           -5.62474734378057       -2.86230134078692       -0.27488545435137
H           -6.40401152493063       -2.03716892702564        1.91894612490148
H           -4.83343765167395       -0.85380101144048        3.41001381167756
H           -2.49784945858813       -0.49953459222729        2.71057981918002
H           -3.63244222471203        2.01145081575845        1.55366345776904
H           -5.95851951684444        2.02735185775730        0.87627924458717
