80
 energy: -118.170498297082 gnorm: 0.000050645338 xtb: 6.7.1 (edcfbbe)
C            0.60930461732767       -0.71826538636748        0.36544284462589
C            1.45459796153956        0.07210442654687       -0.33593497906758
C            2.89374305746781        0.02301075437226       -0.31094474119462
C            3.61464280826806        0.92577363635122       -1.10631677244853
C            4.99097318110590        0.93488753954688       -1.12150173087500
C            5.70490384693248        0.02948243982335       -0.33818041662354
N            7.10412308264137        0.03237515666885       -0.34714456447126
C            7.90579768484355        0.01850853070999       -1.47167896721616
C            7.54945041138107       -0.05520839869957       -2.81078093169830
C            8.56441760842097       -0.08431704440846       -3.74786339972982
C            9.90500527004599       -0.05054111908476       -3.37032472261519
C           10.26613019710431       -0.00273603020549       -2.03871785389780
C            9.26389945131803        0.02746320311439       -1.07823439472673
C            9.27254662595957        0.05447334887358        0.35760388128040
C           10.28615090592813        0.09234628270561        1.30580992588964
C            9.94094376136740        0.13690280870118        2.64174350250383
C            8.60484486676117        0.16025916988740        3.03559524141093
C            7.57877724595611        0.12369448531552        2.11094526416912
C            7.91932349790987        0.05283905306602        0.76757309922692
C            5.00560202153376       -0.87905162066244        0.45552639536661
C            3.62904579289515       -0.87947452613527        0.46964868611639
C           -0.81961987817567       -0.66657097394877        0.34539562110058
C           -1.56520347220251        0.24068395227638       -0.43526984779626
C           -2.92917071247357        0.25503127932337       -0.40446186625510
C           -3.66853836162469       -0.65714298351104        0.39413848335396
C           -5.07586188609609       -0.60255118017597        0.44223642740108
C           -5.77505444776294        0.61589717462941        0.00540908734692
C           -5.38861878047408        1.87190637260462        0.57183331950340
C           -5.57193361103282        3.08583808361199       -0.11960702261801
C           -5.15355153797345        4.27971398191259        0.42420401871854
C           -4.54334172078685        4.31269369855714        1.67075517223364
C           -4.34075103114486        3.12612496155634        2.36286816279547
C           -4.74648642856754        1.92617949403431        1.82488063016325
C           -6.83378579837479        0.47775318981665       -0.94978846385875
C           -6.84318924355253       -0.60496674339003       -1.84997979998853
C           -7.87104656476704       -0.77018763000239       -2.75018282774109
C           -8.93289350642567        0.12398115847905       -2.77747351390463
C           -8.95454473405182        1.18518087522377       -1.88322218509329
C           -7.92617170898123        1.36513573173427       -0.98482620342782
C           -5.89834983181311       -1.69242679975500        0.91205538025809
C           -7.12623897982328       -1.43134071544310        1.54030394627146
C           -7.94029803935830       -2.46078448857602        1.95960017282172
C           -7.56640910039446       -3.78043423599086        1.75028518786128
C           -6.36837983777609       -4.05746797206253        1.10902928774171
C           -5.54292680069468       -3.03315775179535        0.69581151736631
C           -2.91474842717436       -1.56555131442816        1.18203990067407
C           -1.54982573402713       -1.55846483396399        1.15878139367994
H            1.02249412408993       -1.47612748783447        1.01866093521956
H            1.04387962884028        0.82970280860464       -0.98990174127910
H            3.07403497872990        1.63761045279759       -1.71407864991361
H            5.52609908211295        1.65393902531905       -1.72393852295372
H            6.51411940697452       -0.10131812809442       -3.11320696461884
H            8.31248649883084       -0.13867716800230       -4.79679904336349
H           10.66878941238283       -0.07237383585395       -4.13345009777667
H           11.30495166496398        0.00607843060378       -1.74479578498518
H           11.32134374272924        0.09186163491223        0.99924222639373
H           10.71378611140858        0.16432685835156        3.39551037632964
H            8.36527670731950        0.21231188734239        4.08754180699615
H            6.54691320211684        0.16212190996928        2.42600658600769
H            5.55527504679975       -1.59625939580118        1.04719674175046
H            3.11614466660254       -1.59774294689413        1.08994644959836
H           -1.05020591454238        0.94083068730291       -1.07507581691768
H           -3.47070390254592        0.95312425079772       -1.02586786050926
H           -6.00225461323688        3.06892259682328       -1.11016365235637
H           -5.29401159902545        5.19707059748646       -0.12963713608977
H           -4.22049481144695        5.25202243777479        2.09378239712478
H           -3.86159487777804        3.14379673544289        3.33114688105142
H           -4.59742192180655        1.01003924731209        2.37748838603242
H           -6.01327971960067       -1.29639021777372       -1.84586525703924
H           -7.85033916214476       -1.60136073235743       -3.44026051978263
H           -9.73991340782186       -0.01030541060844       -3.48194340710967
H           -9.78903622241912        1.87192659167254       -1.88440437817615
H           -7.97820567690071        2.16760838865475       -0.26368837239930
H           -7.41853815442904       -0.40604844227445        1.71574154479257
H           -8.87529793368365       -2.23772771974074        2.45288638739499
H           -8.20810578959264       -4.58579727773320        2.07496734284023
H           -6.08171706270093       -5.08270638954318        0.92309545542683
H           -4.63406258345275       -3.25989680937125        0.15761531700968
H           -3.43502974012215       -2.23262110156761        1.85338827675046
H           -1.00490229869991       -2.24764899507366        1.78985780410182
