  80
       -118.22980186
 C          0.6076777916       -0.6036792588        0.3953793638
 C          1.4916355747        0.0847558284       -0.3437867625
 C          2.9347714332        0.0327409282       -0.2315784925
 C          3.7055535417        0.8140204091       -1.0998377745
 C          5.0824144799        0.8053433047       -1.0472676462
 C          5.7402795352        0.0021646241       -0.1188713391
 N          7.1391369838       -0.0199015183       -0.0665814241
 C          7.9826047327       -0.2109695393       -1.1431555532
 C          7.6752571400       -0.4709033844       -2.4710670722
 C          8.7239176119       -0.6542154844       -3.3517579995
 C         10.0496579237       -0.5907584700       -2.9282217872
 C         10.3612376771       -0.3565497825       -1.6039785032
 C          9.3243926253       -0.1691424143       -0.6994717077
 C          9.2785089681        0.0651300765        0.7166054904
 C         10.2553715685        0.2217934167        1.6909696703
 C          9.8600248862        0.4641829033        2.9911988690
 C          8.5105813787        0.5654461444        3.3223667450
 C          7.5202772368        0.4136186206        2.3707880108
 C          7.9108695132        0.1465132747        1.0663406450
 C          4.9883058616       -0.7813600624        0.7540323551
 C          3.6115993287       -0.7624887952        0.6987801670
 C         -0.8348622837       -0.5560557136        0.2802004188
 C         -1.5126340142        0.2102090493       -0.6740628874
 C         -2.8882833787        0.2244939296       -0.7286147945
 C         -3.6503327611       -0.5268249782        0.1672066538
 C         -5.1183553587       -0.5305889634        0.1113491120
 C         -5.8432828513        0.6011666104       -0.0371971132
 C         -5.2388709232        1.9421198057        0.0304525441
 C         -5.5874846206        2.9115656687       -0.9080917862
 C         -5.0363431130        4.1775524428       -0.8482643982
 C         -4.1410492789        4.4998993696        0.1580156749
 C         -3.8038187275        3.5492752162        1.1077242657
 C         -4.3475751584        2.2806437059        1.0467828858
 C         -7.2965836104        0.5838102092       -0.2714223581
 C         -7.8656198987       -0.2698998174       -1.2144067998
 C         -9.2293977857       -0.2597697234       -1.4356195950
 C        -10.0464874200        0.6012898456       -0.7214161957
 C         -9.4892701686        1.4627180598        0.2089079324
 C         -8.1246937985        1.4603188616        0.4274352906
 C         -5.7470748115       -1.8572857381        0.2343163805
 C         -6.8234806889       -2.0674476130        1.0936283091
 C         -7.3926209593       -3.3210735101        1.2096096152
 C         -6.8970122922       -4.3838454605        0.4720794368
 C         -5.8185111100       -4.1883345361       -0.3743835804
 C         -5.2424056443       -2.9371500971       -0.4874295308
 C         -2.9815259413       -1.3153646129        1.1035110810
 C         -1.6054955073       -1.3220023252        1.1619847107
 H          0.9681304449       -1.2713861358        1.1670865238
 H          1.1306359725        0.7551308991       -1.1125196076
 H          3.2082224759        1.4452513048       -1.8227760286
 H          5.6589379821        1.4311990644       -1.7123149832
 H          6.6510391355       -0.5403094920       -2.8055320879
 H          8.5107022463       -0.8555029840       -4.3913480990
 H         10.8409094655       -0.7379687441       -3.6481655498
 H         11.3880976783       -0.3247425412       -1.2721954495
 H         11.3013135907        0.1598443766        1.4307256847
 H         10.6036769701        0.5871618361        3.7644783318
 H          8.2320391044        0.7709564342        4.3456280583
 H          6.4778028960        0.5116917396        2.6342420650
 H          5.4952737135       -1.4175148683        1.4644528228
 H          3.0558172045       -1.3829650555        1.3841403405
 H         -0.9571045333        0.7998495511       -1.3868472690
 H         -3.3881952565        0.8147794696       -1.4826276035
 H         -6.2850598196        2.6600293159       -1.6947454376
 H         -5.3076653905        4.9165206887       -1.5883407687
 H         -3.7120889857        5.4899838814        0.2055343948
 H         -3.1154590021        3.7993288166        1.9019118488
 H         -4.0916847663        1.5456881406        1.7959607325
 H         -7.2305407496       -0.9341752281       -1.7819205334
 H         -9.6574599694       -0.9248513332       -2.1715276409
 H        -11.1127841568        0.6046873323       -0.8931670595
 H        -10.1207127261        2.1403773882        0.7651766756
 H         -7.6906628108        2.1322251129        1.1547055373
 H         -7.2053189975       -1.2436955746        1.6787582125
 H         -8.2259548514       -3.4708666269        1.8805347514
 H         -7.3461399706       -5.3620528805        0.5610802029
 H         -5.4242533421       -5.0145982623       -0.9481366652
 H         -4.4016271162       -2.7848787788       -1.1497805085
 H         -3.5547813064       -1.9134580802        1.7980455677
 H         -1.1083505253       -1.9311775865        1.9042702818
