80
 energy: -118.229860012068 gnorm: 0.000054393238 xtb: 6.7.1 (edcfbbe)
C            0.80101456932792       -0.44654858618761        0.58003095456341
C            1.69210807270511       -0.12591884464011       -0.37103504289165
C            3.13459401527910       -0.15022493460458       -0.24354910512050
C            3.91481057146896        0.12180869199530       -1.37293402803322
C            5.29155499174235        0.11688824030646       -1.31613667919335
C            5.93916645203075       -0.16621318376681       -0.11603009428296
N            7.33741632039087       -0.17549004102565       -0.04941735877191
C            8.18235711775544       -0.85491018783424       -0.90468279745874
C            7.87710612320104       -1.69836217309509       -1.96337312493656
C            8.92675933625681       -2.28167259794286       -2.64669157652600
C           10.25142746867785       -2.04391917284147       -2.28657799305756
C           10.56060161411688       -1.22516956222328       -1.21902056545154
C            9.52272423171442       -0.62736421946840       -0.51640249732746
C            9.47452236880210        0.23888781044558        0.62795328695029
C           10.44947229303573        0.81820621986054        1.42926254129588
C           10.05232099975480        1.64184247385552        2.46343476474095
C            8.70329842283508        1.90310395606328        2.69323895080327
C            7.71500463398664        1.33880156937270        1.90977295120750
C            8.10690659046860        0.48981474535772        0.88453225920706
C            5.17743290832700       -0.43886821761558        1.01846188686146
C            3.80108771552233       -0.42730871827273        0.95427766613265
C           -0.64102319070472       -0.41996855208320        0.45218673382251
C           -1.30890076282512        0.02250176127000       -0.69464777438568
C           -2.68409647942580        0.03954336566477       -0.75475018346125
C           -3.45549843915411       -0.38644942403138        0.32748859904701
C           -4.92315506765115       -0.38668864178353        0.26598370942097
C           -5.62874573607286        0.65474947481868       -0.23099892188803
C           -5.00376318098512        1.94628055974516       -0.56052961708859
C           -5.33192265844498        2.59958776190825       -1.74702959503641
C           -4.76154909032649        3.81943756762982       -2.05831421571610
C           -3.86652165980649        4.41292136884729       -1.18379755927191
C           -3.54911444278261        3.78100750845500        0.00752438068692
C           -4.11254479703452        2.55861764849456        0.31884970820089
C           -7.07835057130400        0.57975468837728       -0.47512282616481
C           -7.64250942189096       -0.51804841923867       -1.12227712144484
C           -9.00186585825763       -0.56637328327963       -1.36405449923111
C           -9.81959308957290        0.47832847823279       -0.96517139845360
C           -9.26703108048921        1.57961574182414       -0.33274331684811
C           -7.90654801204515        1.63458103050705       -0.09602982037629
C           -5.57378307834423       -1.60064739039338        0.78792903206067
C           -6.66059271537874       -1.51662563694477        1.65592443192437
C           -7.24953418778576       -2.66283126118945        2.15410637530068
C           -6.76385007919262       -3.90971907270257        1.79558294409665
C           -5.67586417541609       -4.00372327294448        0.94386667415821
C           -5.07992788514748       -2.85891848151837        0.44932555238137
C           -2.79711031876368       -0.85356138816492        1.46497472746900
C           -1.42114551946169       -0.85931103645799        1.52755814805061
H            1.15434843120279       -0.76956976339130        1.55068795276106
H            1.33837792964449        0.17671473743740       -1.34777760614298
H            3.42511793251986        0.34691038262566       -2.30992084132764
H            5.87572321390133        0.34891594422883       -2.19428694870838
H            6.85355803982410       -1.90390077246856       -2.23851665643198
H            8.71511575016311       -2.94014754889954       -3.47635774943251
H           11.04365227009663       -2.51696535486194       -2.84765585602579
H           11.58640201003124       -1.05387712606937       -0.92918982346411
H           11.49542724208953        0.62887839353069        1.24022767495627
H           10.79437081369484        2.10026026100795        3.10015855725700
H            8.42351981658791        2.56491849583060        3.49974976311728
H            6.67335789616858        1.56272550871808        2.08422365440485
H            5.67645455546673       -0.67484093683574        1.94676872149310
H            3.23707170434244       -0.64056266382364        1.84883960786232
H           -0.74600273853579        0.35980444364232       -1.55118131685558
H           -3.17686944674336        0.37597654180657       -1.65523262877047
H           -6.02899224135256        2.13629364129660       -2.43124769688205
H           -5.01751240092029        4.31037169108172       -2.98614668037395
H           -3.42251852666534        5.36707585853094       -1.42667482502589
H           -2.86109303868347        4.24530146743998        0.69904772445784
H           -3.87265040957742        2.07519496360943        1.25457671673568
H           -7.00644314100557       -1.32899103419006       -1.44558145710831
H           -9.42590879642765       -1.42218562327315       -1.86895211781033
H          -10.88261555832568        0.43670856086332       -1.15159097127232
H           -9.89903820871039        2.39989098243225       -0.02435481478512
H           -7.47632674626985        2.49392618620158        0.39913626016246
H           -7.03455708841500       -0.54592498226070        1.94685672106925
H           -8.09022992690451       -2.58352079298971        2.82794666209837
H           -7.22823479517581       -4.80457368683806        2.18301538696046
H           -5.28927394991636       -4.97339678256027        0.66512380996874
H           -4.23165985304697       -2.93331982918359       -0.21681146987897
H           -3.37815116672067       -1.19678420655043        2.30957153769333
H           -0.93156889150808       -1.21275231885034        2.42459714331840
