  72
       -125.16694328
 N         -2.4879618806       -8.0509714816        0.1025218353
 C         -1.8763269085       -7.0838230154        0.0387090110
 C         -1.0922271687       -5.9070790782       -0.0437187168
 N         -1.6841018832       -4.7353423733        0.1287356488
 C         -0.9350421369       -3.6361648185        0.0632068631
 C         -1.5570694325       -2.3520941827        0.1898124373
 C         -2.9491290969       -2.2523630675        0.3082327938
 C         -3.5726714729       -1.0367978197        0.3727296748
 C         -2.8211962190        0.1510340429        0.3015891624
 N         -3.4581826738        1.3761783149        0.3030471619
 C         -2.8144173315        2.5832975127       -0.0452738649
 C         -1.7253054378        3.0665110431        0.6724782158
 C         -1.0912652245        4.2311239889        0.2789163233
 C         -1.5546588486        4.9448834724       -0.8142335778
 C         -2.6803901151        4.5151026237       -1.4912853090
 C         -3.3116444110        3.3436635381       -1.1031948820
 S         -4.7829430458        2.8219895661       -1.9425339044
 C         -5.6072479639        2.1377247616       -0.5296541625
 C         -6.9826210636        2.2553030125       -0.4024994395
 C         -7.6154514379        1.7354083304        0.7112791722
 C         -6.8725817490        1.1247471067        1.7096915504
 C         -5.5001862544        1.0118415997        1.5862234629
 C         -4.8574861507        1.4903894643        0.4491806394
 C         -1.4379306174        0.0523735538        0.1645569723
 C         -0.7805383296       -1.1746388116        0.1389249492
 C          0.6707647490       -1.2752902068        0.0609598211
 C          1.5030278478       -0.1690845570        0.2066294120
 C          2.8924823497       -0.2714724902        0.1455963337
 N          3.6871545567        0.8379604549        0.3466484524
 C          5.0891759578        0.8279614618        0.1783758379
 C          5.9046781503       -0.0723987170        0.8562059672
 C          7.2723671192       -0.0634793344        0.6510907971
 C          7.8451438289        0.8605286796       -0.2083859652
 C          7.0530089720        1.8059387251       -0.8330811192
 C          5.6822766695        1.7949550567       -0.6309653490
 S          4.6637842213        3.0499024540       -1.3631829599
 C          3.5581781481        3.2299034600        0.0121064071
 C          3.1066312852        4.4862385207        0.3842055185
 C          2.2832598636        4.6200568981        1.4866864433
 C          1.9254389593        3.5016285494        2.2249191661
 C          2.3757019634        2.2481859258        1.8549865523
 C          3.1783624054        2.0959504471        0.7282402310
 C          3.4544512655       -1.5147831829       -0.1970568936
 C          2.6558523874       -2.6191317821       -0.3175313372
 C          1.2690537640       -2.5379817232       -0.1409110646
 C          0.4680499518       -3.7251540292       -0.1568601085
 N          1.0532110732       -4.9058145337       -0.3494276469
 C          0.2980479088       -5.9925895030       -0.3077822391
 C          0.9074390627       -7.2530960938       -0.5227353571
 N          1.3749636741       -8.2853229808       -0.6942403839
 H         -3.5228055099       -3.1654858139        0.3316974423
 H         -4.6482786968       -0.9934569448        0.4346980964
 H         -1.3797131837        2.5246776023        1.5402650916
 H         -0.2310823064        4.5794561406        0.8282787420
 H         -1.0517531465        5.8469876158       -1.1259337061
 H         -3.0758120492        5.0740343654       -2.3250883433
 H         -7.5433802880        2.7470201544       -1.1819938217
 H         -8.6869846697        1.8176297376        0.8055168646
 H         -7.3624915664        0.7363353243        2.5892015177
 H         -4.9139872615        0.5403882584        2.3609118758
 H         -0.8661762186        0.9547095148        0.0338604158
 H          1.0693245559        0.8031952893        0.3702755217
 H          5.4594490715       -0.7769402596        1.5423358253
 H          7.8923626525       -0.7783332998        1.1697952322
 H          8.9110871886        0.8598134314       -0.3742140097
 H          7.4845034078        2.5545228345       -1.4790647092
 H          3.4084490094        5.3466508686       -0.1923194492
 H          1.9392822090        5.5999237995        1.7818505604
 H          1.3005507950        3.6069032450        3.0990319535
 H          2.1143755547        1.3773826938        2.4375537860
 H          4.5141774039       -1.6040730677       -0.3714441997
 H          3.0828426688       -3.5836462216       -0.5427560908
