86
 energy: -123.067130249078 gnorm: 0.000033916897 xtb: 6.7.1 (edcfbbe)
C            6.07710480509294       -5.31019549573152        1.02427182238068
C            6.11321355746291       -4.24444611058111       -0.06614154319423
C            4.88179564808955       -3.33600935159914       -0.06668470350567
C            3.59938534567523       -4.07162287346505       -0.45687845090089
C            2.39527358385248       -3.13932106043957       -0.63805559038940
C            1.29274401003775       -3.78507250665498       -1.49293153277415
C            0.86442984386580       -5.17999152974171       -1.04651082984681
C            1.84866942068471       -2.67061769802028        0.72371023135837
N            0.97190295331159       -1.53536662065999        0.59677122648953
C            1.39532829689654       -0.25070698500824        0.36153755890740
C            2.68615069080383        0.25611593173413        0.26441457087471
C            2.83980402095988        1.60585057504265        0.02644057683500
C            1.73395467260561        2.45663632881968       -0.09944919755181
N            1.94366686867205        3.82796337853968       -0.34129674620537
C            2.73353137386309        4.66901183420165        0.41276959800552
C            3.44996370408375        4.40438647073881        1.57228897529053
C            4.15046009013862        5.44551349379836        2.15013733193101
C            4.13898132589664        6.72558634487256        1.59813177496949
C            3.41338697995457        6.99975803354732        0.45588371446390
C            2.69987970595950        5.96953185608892       -0.14400235417125
C            1.84323125754123        5.89662598938128       -1.29396441591390
C            1.43209938982559        6.82433190358856       -2.24301774837290
C            0.59217629343019        6.40750291658563       -3.25641716212363
C            0.17082284111290        5.08115900718857       -3.33832065275445
C            0.56540112276732        4.14000918209016       -2.40715191073197
C            1.39573168679684        4.55660520207399       -1.37536021313274
C            0.44356298643963        1.96181042009681        0.00638638274386
C            0.27261842338199        0.60307473256530        0.23065572290858
C           -0.88351978587802       -0.22886457591202        0.39334690813311
C           -2.24687112297550        0.02780965977255        0.36471234623290
C           -3.12293414057740       -1.02415406665344        0.57977474549384
N           -4.51249849653551       -0.79724452122557        0.57069673332891
C           -5.43667247885592       -1.48010258330358       -0.19050559985412
C           -5.23932534949272       -2.48151552740343       -1.13180525495432
C           -6.35057283328574       -2.98983710377413       -1.77615603363836
C           -7.63198772871320       -2.51404137092817       -1.50234362219625
C           -7.83308051625511       -1.50454773721838       -0.58212392588890
C           -6.73138659625549       -0.97691390400166        0.07984821889369
C           -6.56725454650007        0.06095456009539        1.05841029597672
C           -7.45254341667983        0.90344405676956        1.71941191836437
C           -6.95025176218240        1.80171836919434        2.63978207806788
C           -5.58451943364684        1.85958242728246        2.91330403107224
C           -4.68407821405093        1.03306442444327        2.26938475746067
C           -5.18066442156043        0.13950139199015        1.32991049640357
C           -2.64068947398081       -2.31759672621884        0.81656618859621
C           -1.28938580474697       -2.59088490942634        0.83062511420551
C           -0.40070351752941       -1.54337820525943        0.61643276001793
H            5.26408759465052       -6.01251202705503        0.85953540955593
H            5.94547092259159       -4.85128351411874        2.00237271402068
H            7.00981493751809       -5.87044509313824        1.03303509177678
H            7.00128691051955       -3.62371371175048        0.07904635874827
H            6.20635427851979       -4.72722588215397       -1.04197460047887
H            4.77761721918599       -2.89262331812029        0.92591817495719
H            5.05273501777101       -2.52443933299935       -0.77933205382060
H            3.77971266995919       -4.58841931748762       -1.40201277040149
H            3.36250798931935       -4.82103015701280        0.29815961203145
H            2.73205635204143       -2.24539569841369       -1.17633660252424
H            0.42240970326781       -3.12432018479326       -1.49179033531349
H            1.64873073305820       -3.84724529510824       -2.52421106862892
H            1.66986061080469       -5.89754096123671       -1.17835158379748
H            0.01666408823573       -5.51062022470226       -1.64304955235537
H            0.56459179642887       -5.19300052232917       -0.00202597060716
H            2.68072352030493       -2.38478300010622        1.37266300957571
H            1.30387027342014       -3.47880864430951        1.21219709429737
H            3.55144924594828       -0.37996673685409        0.36165720447592
H            3.82982858927704        2.02500437604600       -0.07461862930463
H            3.45214887732312        3.41925938894274        2.01426514042626
H            4.71733658666697        5.26517335843842        3.05221072549277
H            4.70121858420253        7.51299855083742        2.07888682327729
H            3.39458473625782        7.99482094353894        0.03626674692953
H            1.76720395093684        7.84958117360048       -2.18703973927345
H            0.25956505301490        7.11398219523756       -4.00303374496393
H           -0.47738473783578        4.78253159073168       -4.14968761055016
H            0.24419949769961        3.11200449017321       -2.48518143533121
H           -0.40526708556662        2.62356100842609       -0.07513208463173
H           -2.62078025663412        1.02216113396138        0.17387058832201
H           -4.24897848889792       -2.84633595793796       -1.35971125935892
H           -6.22432945867740       -3.77191136185274       -2.51100409622757
H           -8.47595717293995       -2.93929244074543       -2.02585374494187
H           -8.82492622068658       -1.12743333224897       -0.38059587106772
H           -8.51222325301039        0.85124082311867        1.51703480772917
H           -7.62196260575744        2.46680052460894        3.16292727936248
H           -5.22276266798867        2.56529159909543        3.64730648407009
H           -3.62927733436198        1.07638835374456        2.49641118580086
H           -3.35075872595713       -3.11042379922560        0.99881537272538
H           -0.94774799011146       -3.59714602407771        1.01187033868664
