86
 energy: -122.966289081361 gnorm: 0.000050683680 xtb: 6.7.1 (edcfbbe)
C            0.50034468500510       -1.51072000628707       -4.26202995894410
C            1.05801715027212       -2.68517032273529       -3.46635630613984
C            0.03022541226264       -3.23888307241669       -2.48182713617997
C            0.58425476225019       -4.41486915414237       -1.67695185112253
C           -0.38357312006350       -4.91415419337169       -0.59188803606944
C           -0.34450282536682       -6.44182726208299       -0.44646564560059
C           -1.06318464005426       -7.15902240384832       -1.58421648998273
C           -0.06575866143842       -4.28185263874347        0.78099523487569
N           -0.03311393079923       -2.84848606741136        0.74437282557791
C            1.09389480432735       -2.06684460969442        0.69258801184597
C            2.42785055780801       -2.42262731966377        0.76921539913849
C            3.39008771102232       -1.41006747334968        0.70621396453282
C            3.01215193408300       -0.07219568898580        0.55064654406221
N            3.99528438039438        0.91432902709674        0.48163921903884
C            5.06874873641720        1.05232961111755        1.34294873134841
C            5.38778859918198        0.32290034178239        2.47681830953722
C            6.51421069435705        0.70051968785614        3.19581235568840
C            7.29333486895712        1.78380936486709        2.80083234752765
C            6.96337677434938        2.53521593143098        1.68651900796475
C            5.83897702973958        2.17559971584147        0.95019584722547
C            5.19753148210608        2.72847958901288       -0.20679021934366
C            5.48999186620520        3.79890039509721       -1.04613548896544
C            4.65497104036049        4.04373432250234       -2.12234383711622
C            3.55295793912410        3.23354420846473       -2.37851824243161
C            3.24276982211440        2.15845792735815       -1.55625277712889
C            4.05767213465645        1.92525234555052       -0.46033973187194
C            1.66617943643306        0.30019168095212        0.47321452024379
C            0.69436728014165       -0.70050418006463        0.56298968250835
C           -0.72482515463864       -0.68929487060081        0.54376845859887
C           -1.68207427798665        0.32334653866657        0.43205013952009
C           -3.03396306942695       -0.03535954292227        0.46289900717219
N           -4.00218483029797        0.96476227129220        0.36995980220914
C           -4.01541327830754        1.98834562102605       -0.56009015718680
C           -3.15929861234665        2.22252684610217       -1.62419155052437
C           -3.42090518521101        3.31553099164361       -2.43941397756167
C           -4.51614552170061        4.14246576972246       -2.20872076987891
C           -5.39275114659969        3.89649723124208       -1.16652439900525
C           -5.14900862068851        2.80845347744257       -0.33443355536370
C           -5.83956610316257        2.25142445136969        0.79193048413703
C           -6.98267667675283        2.62097869632402        1.49354943198615
C           -7.36431099808236        1.86121422741228        2.58533115437406
C           -6.61792635067283        0.75932624211173        2.99207672727791
C           -5.47380727739787        0.37170077621906        2.30768990978714
C           -5.10219873125083        1.11022130810598        1.19574758214177
C           -3.43266092203677       -1.36956750046908        0.59371206570547
C           -2.48434984824345       -2.39372885526474        0.68531123266508
C           -1.14664762825289       -2.04874389235313        0.65906243689334
H            0.18676762505460       -0.71296652382916       -3.59137433045101
H           -0.36231803751471       -1.82037885144172       -4.84895335084181
H            1.25302608402392       -1.11388008403915       -4.94005211546134
H            1.36832920588318       -3.47546268042939       -4.15458689150556
H            1.94369434433275       -2.35883871946147       -2.91507474233650
H           -0.27815949795144       -2.43500666180042       -1.81220324232969
H           -0.85675201342938       -3.56450689401945       -3.03178811117060
H            0.80519370406241       -5.22834743419610       -2.36987382264051
H            1.53025952454521       -4.11907960292693       -1.21990944262849
H           -1.39962662232293       -4.62069725750320       -0.87340606755456
H            0.69550532833520       -6.77238094122210       -0.40151383737022
H           -0.82126695759716       -6.72414440300237        0.49534598485743
H           -2.11215790010678       -6.87126755952694       -1.61242146357172
H           -1.00722646562891       -8.23629741226508       -1.44422886776330
H           -0.61859827173263       -6.91858881156377       -2.54667905142895
H            0.90450522578918       -4.64243691326365        1.12769211102814
H           -0.82590152930280       -4.59369715951616        1.50457984341871
H            2.74691047535347       -3.44919552317431        0.85989703484379
H            4.43735846696775       -1.66528476045034        0.72747747608002
H            4.77617069169350       -0.50440225608046        2.80236742665742
H            6.78579140959632        0.14478831293287        4.08103082159072
H            8.16448213825688        2.04734366804446        3.38328768444451
H            7.55895290211634        3.38735846582623        1.39572658979767
H            6.35502203246513        4.41825183760009       -0.86294757942220
H            4.86610335260320        4.87156048520269       -2.78383275804849
H            2.92953583645053        3.43882189949357       -3.23606406235817
H            2.39980007257305        1.52125251840175       -1.77414282589684
H            1.38866233405245        1.33970925530765        0.40625690834131
H           -1.39165608881680        1.36031051240912        0.38255242159443
H           -2.32128236199793        1.57254163916672       -1.82375645103666
H           -2.76400487733694        3.52246835615636       -3.27117414314951
H           -4.68846799388585        4.98458305654196       -2.86340386423399
H           -6.25210577760735        4.52920956236597       -1.00341060101255
H           -7.55318958450563        3.48710550780935        1.19385066930886
H           -8.25064709974053        2.13239466416492        3.14065403206178
H           -6.93007372973103        0.19623933064301        3.85914279452346
H           -4.88851278552915       -0.47060983493510        2.64286556041023
H           -4.48292379709191       -1.61224003391089        0.57646909255563
H           -2.81000317572515       -3.41886275956852        0.75806490356981
