  86
       -122.92117266
 C          0.4959310557       -1.5040392109       -2.9713940472
 C         -0.6098837607       -2.5529527388       -3.0032845124
 C         -0.0702567253       -3.9840539048       -3.0730383109
 C          0.5169551684       -4.4720023212       -1.7470365435
 C         -0.5700140577       -4.8128785813       -0.7146436818
 C         -0.8627569192       -6.3161350027       -0.7025081669
 C         -2.1586711094       -6.6808132047        0.0136124042
 C         -0.1696617075       -4.3194902427        0.6896636408
 N         -0.0755832423       -2.8896014492        0.7248625008
 C          1.0793958461       -2.1521335723        0.6619628636
 C          2.3988419165       -2.5625455274        0.6990644481
 C          3.3997182334       -1.5882136134        0.6084803467
 C          3.0685905961       -0.2355678802        0.4694443265
 N          4.0821700010        0.7110950028        0.3545924352
 C          4.1181987275        1.7321926921       -0.5755484235
 C          3.2461631942        2.0043416514       -1.6177100276
 C          3.5362727319        3.0848225591       -2.4387190132
 C          4.6725437837        3.8618669942       -2.2362803124
 C          5.5660691903        3.5732509271       -1.2199827204
 C          5.2951268212        2.4968959931       -0.3829418797
 C          5.9913320365        1.9038616264        0.7217480158
 C          7.1718497125        2.2141284854        1.3867722577
 C          7.5491348638        1.4325870421        2.4643615387
 C          6.7610826785        0.3694061234        2.8936426274
 C          5.5785252544        0.0414664881        2.2460553940
 C          5.2108897550        0.7996114514        1.1459223979
 C          1.7378989539        0.1915380402        0.4405512573
 C          0.7293076567       -0.7704200724        0.5497459694
 C         -0.6858384801       -0.7061935412        0.5417176458
 C         -1.6045774883        0.3411777165        0.4282129519
 C         -2.9679466976        0.0323227332        0.4518117733
 N         -3.8937267141        1.0664948596        0.3398162442
 C         -5.0083372634        1.2540366588        1.1337669964
 C         -5.4435630525        0.5265640557        2.2301226333
 C         -6.5907017957        0.9575843174        2.8804905894
 C         -7.2785613892        2.0909572095        2.4582286509
 C         -6.8319433329        2.8405155719        1.3845477686
 C         -5.6854153957        2.4269717376        0.7165158399
 C         -4.9396864276        2.9593765225       -0.3867713017
 C         -5.1129727140        4.0596912074       -1.2183749199
 C         -4.1992100325        4.2701735394       -2.2357247620
 C         -3.1382734110        3.3941765392       -2.4434857938
 C         -2.9461396554        2.2888332525       -1.6273313818
 C         -3.8379400322        2.0912048895       -0.5849537775
 C         -3.4179178877       -1.2854248032        0.5875749978
 C         -2.5073090574       -2.3444898830        0.6827736757
 C         -1.1583185208       -2.0488748487        0.6518067242
 H          0.0622987538       -0.5072309532       -2.9314235912
 H          1.1152228199       -1.5729587260       -3.8635471637
 H          1.1308246697       -1.6278602612       -2.0999407377
 H         -1.2350847617       -2.4323119547       -2.1187420172
 H         -1.2388853965       -2.3732035218       -3.8782314759
 H         -0.8746468820       -4.6578582311       -3.3766807817
 H          0.7020905961       -4.0274100328       -3.8436085638
 H          1.1298370518       -5.3575431579       -1.9278605418
 H          1.1748106833       -3.6973432471       -1.3602581529
 H         -1.4882051868       -4.2913449289       -0.9926971479
 H         -0.9344707512       -6.6546131814       -1.7378596972
 H         -0.0273090539       -6.8458404165       -0.2388558071
 H         -2.1076628803       -6.4523048523        1.0755000963
 H         -2.3556110662       -7.7451413235       -0.0882699820
 H         -2.9974079657       -6.1376241448       -0.4172711934
 H          0.7927881071       -4.7467228875        0.9731532553
 H         -0.9210184765       -4.6360078082        1.4167306473
 H          2.6766601326       -3.6028786279        0.7701276342
 H          4.4346343145       -1.8862194279        0.5873805194
 H          2.3778342611        1.3901110128       -1.7967734076
 H          2.8684823743        3.3217910211       -3.2531947412
 H          4.8638711379        4.6969076837       -2.8936913463
 H          6.4574933665        4.1649180960       -1.0800798026
 H          7.7747196487        3.0511841377        1.0699390733
 H          8.4646104522        1.6564616781        2.9914170252
 H          7.0708824504       -0.2097270323        3.7503201688
 H          4.9607204579       -0.7692147778        2.5993536498
 H          1.5005690139        1.2405175003        0.3872709909
 H         -1.2761176193        1.3656253931        0.3787252311
 H         -4.9023703160       -0.3392029100        2.5784883977
 H         -6.9520949243        0.4040709285        3.7339391647
 H         -8.1694875271        2.3945808862        2.9874505583
 H         -7.3555428460        3.7312385572        1.0730330906
 H         -5.9468200289        4.7292641794       -1.0739990645
 H         -4.3154921860        5.1214144247       -2.8899173977
 H         -2.4532507368        3.5731501837       -3.2585318550
 H         -2.1361157077        1.6000369834       -1.8088706043
 H         -4.4754570083       -1.4898135097        0.5639124229
 H         -2.8713082886       -3.3565878088        0.7609976193
