86
 energy: -122.966022117434 gnorm: 0.000044937703 xtb: 6.7.1 (edcfbbe)
C            0.29117282122570       -2.57483039502040       -2.69306285928923
C           -0.72053170393841       -3.67076840905564       -2.37501010554402
C           -0.07428891069137       -4.95510763447960       -1.84780471303435
C            0.48886445527135       -4.82133155766757       -0.43076805260358
C           -0.60520318908971       -4.81323031273507        0.64767750617804
C           -0.92129137909177       -6.23778915822782        1.11777098834226
C           -2.24776729357893       -6.35889420042612        1.86107498293943
C           -0.18985617036675       -3.92553741237608        1.83820481474816
N           -0.08467563189000       -2.54554328236155        1.45830713873533
C            1.07569566849160       -1.86303822473725        1.18934909518000
C            2.39316341266872       -2.26035155873911        1.32754945808508
C            3.39915356265253       -1.36086409022471        0.96162879236920
C            3.08028188439430       -0.08407432630903        0.48579394525441
N            4.10653853151248        0.79054005306949        0.13235589027795
C            4.20214675044553        2.11676565561408        0.51449106466846
C            3.37994598048092        2.85427517818931        1.35108142443575
C            3.72829632120811        4.17435388753741        1.60459474862460
C            4.87306118918880        4.73842193884726        1.04985710648203
C            5.71508041782764        3.99868493352199        0.23824918723070
C            5.38518464441963        2.67432775157762       -0.03173855992058
C            6.02072303656354        1.63184585542237       -0.78332025926818
C            7.17649770805273        1.57583960271167       -1.55590347930480
C            7.49024553590482        0.38817804028257       -2.19293599256782
C            6.66384829979785       -0.72632437687014       -2.08621402394285
C            5.50590365418593       -0.69418218029740       -1.32055109608259
C            5.20205239965902        0.48203293260806       -0.65432908213921
C            1.75188241904004        0.33349852618260        0.35480023035956
C            0.73660000505259       -0.56223409701511        0.70279659468943
C           -0.68036755759928       -0.48755309877256        0.68917037367305
C           -1.59199183122862        0.50594733000197        0.32122858162097
C           -2.95833622667285        0.22789812680120        0.43500581863144
N           -3.88323418899210        1.20364031164099        0.06424700912906
C           -4.99234648439249        1.00864184062276       -0.73911647874175
C           -5.40771763980325       -0.13181602867487       -1.40755137550773
C           -6.55106607629754       -0.04561874929269       -2.19047931916622
C           -7.25466270132346        1.14886809862131       -2.31229686726680
C           -6.82799335391899        2.29948551993769       -1.67295017233091
C           -5.68458811789107        2.23705057024311       -0.88282648085817
C           -4.95587130925373        3.20985036146961       -0.12240056308168
C           -5.14913192725674        4.56251738581007        0.13915010950885
C           -4.24705616259038        5.21308352229210        0.96248812162694
C           -3.17664746106300        4.53407357910989        1.53669410255631
C           -2.96514177170773        3.18379859289234        1.29231636435765
C           -3.84653942710220        2.53339280505805        0.44364962965446
C           -3.41506018566246       -1.00538301622263        0.91171307102679
C           -2.51248196237949       -2.00275586460696        1.29439536275121
C           -1.16083105767820       -1.74249167848514        1.17082079548633
H            1.02322073257907       -2.92770951530135       -3.41711935030559
H            0.81989777337495       -2.25100273180054       -1.79990618513621
H           -0.21453512386394       -1.70683291693348       -3.11142393416606
H           -1.44089775509755       -3.28761091124417       -1.64908375694269
H           -1.27323305722008       -3.91071430958918       -3.28697580293332
H           -0.81412494508603       -5.75886915572551       -1.86622854214646
H            0.73426098773196       -5.23888322800420       -2.52560058325100
H            1.17381168003348       -5.64968015488214       -0.23506747229538
H            1.07136596647441       -3.90201599569399       -0.37932945997773
H           -1.51414441207053       -4.38072890760312        0.21999532783327
H           -0.95845309625273       -6.88599773132097        0.23989049010865
H           -0.10986592943027       -6.59592272275976        1.75588752816192
H           -2.23967368766380       -5.79466665234000        2.79070887395706
H           -2.44464915735710       -7.40043657618749        2.10555561411719
H           -3.06578559419398       -5.99502460872829        1.24234688851140
H            0.77292715897774       -4.25848376246371        2.22940301535471
H           -0.93583110450251       -4.00669662322546        2.63350505339287
H            2.66357076779294       -3.22760767692300        1.72104337274163
H            4.43372421853630       -1.63363926302174        1.09279554088313
H            2.50253428771322        2.41864685462176        1.80397590892269
H            3.10013249764437        4.77113318295672        2.24918429312343
H            5.11214286375050        5.76929187015555        1.26809838814823
H            6.61284782337643        4.43447301662138       -0.17344492435720
H            7.80920107248409        2.44442870478409       -1.65885993098979
H            8.38554255423014        0.32589980922533       -2.79464450364560
H            6.92394906323656       -1.63331199924188       -2.61142386984608
H            4.85978876195453       -1.55636303429346       -1.26125656086345
H            1.52033858586989        1.29993711817853       -0.06251619975537
H           -1.25675105169679        1.44173487215778       -0.09581701231944
H           -4.85628066713884       -1.05657269470070       -1.33602728132558
H           -6.89707362870324       -0.92250307773350       -2.71731685053552
H           -8.14246630945788        1.17815304709783       -2.92752514534667
H           -7.36446333327834        3.22930473074650       -1.78724354117132
H           -5.98921376923760        5.08862492348548       -0.28855480516494
H           -4.37967563155359        6.26431301431238        1.17420124351347
H           -2.49944256660741        5.06428654197035        2.18976723272024
H           -2.14605447883176        2.65986230939488        1.76070590409105
H           -4.47442175491876       -1.16730642626826        1.02996493544141
H           -2.88176701826393       -2.93257439560310        1.69616791624214
