86
 energy: -123.068520847459 gnorm: 0.000034417284 xtb: 6.7.1 (edcfbbe)
C            0.34952294525190       -1.81540431619093       -3.37771994265750
C           -0.61457818133191       -2.99617198569318       -3.42577807453276
C            0.06888782793835       -4.34565297906344       -3.18836859536826
C            0.57885406702473       -4.53829046591868       -1.75829877511820
C           -0.54446023171465       -4.81159440818761       -0.74661341100940
C           -0.86886202136811       -6.30886138487641       -0.67885855032657
C           -2.22161797408610       -6.61389977976751       -0.04323911206699
C           -0.16138246696356       -4.27338796718909        0.64420310583488
N           -0.06704101674273       -2.83680337673636        0.65750602933213
C            1.08141698908117       -2.08615503807286        0.60867885067940
C            2.41416291344052       -2.48262761063684        0.64369304081376
C            3.38852631768483       -1.50953814744940        0.57295239536968
C            3.06033298208666       -0.15035645445295        0.48684292799725
N            4.09246636511730        0.80453275642610        0.41741724334920
C            4.22975651623597        1.77490511528319       -0.55233601800776
C            3.44111744199926        2.02937396803024       -1.66624444870966
C            3.81866079490533        3.06222699300653       -2.50237442567142
C            4.95658057360015        3.82617263630111       -2.24773115984667
C            5.75456227249501        3.56745976728682       -1.15110864116791
C            5.39639161421742        2.53338266476387       -0.29505363285417
C            5.98212758839018        1.98630369734104        0.89633078765656
C            7.11053960328356        2.30283284574910        1.64248432737477
C            7.38280504580854        1.56519194957820        2.77749221743303
C            6.53920174499971        0.53088425981114        3.17995234557058
C            5.41168890037999        0.19654450567187        2.45509892050642
C            5.14398753664652        0.92041268400620        1.30098357792175
C            1.73590828717465        0.25696028771230        0.46602391306958
C            0.74373365046981       -0.71174260997596        0.51978708242573
C           -0.68846847598384       -0.64889148357112        0.50802325794462
C           -1.59433548828211        0.40003802419643        0.44092332454447
C           -2.94849914114507        0.10443332538987        0.44284587911179
N           -3.89457236111982        1.14390004416425        0.35991463415501
C           -4.94280728778939        1.35293441285382        1.23033026720120
C           -5.29229630533226        0.65256862570482        2.37711492731136
C           -6.39330061748022        1.08770477447424        3.08908823813444
C           -7.13109030311237        2.19818043964141        2.68172020680707
C           -6.77647543794198        2.91148276504960        1.55399228287197
C           -5.67299915239449        2.49371403382676        0.82048475213950
C           -5.02285413025695        2.98943697295663       -0.35987005180545
C           -5.27055013866863        4.05702080943445       -1.21385306662536
C           -4.43574360384495        4.24653703969654       -2.29709425412898
C           -3.37018899693895        3.38137034987422       -2.54100435501273
C           -3.10348705419416        2.31278191637472       -1.70713855159224
C           -3.92789522178107        2.12744243409683       -0.60551542679515
C           -3.39202244318573       -1.22183334475138        0.52538628972471
C           -2.50380926306800       -2.27352187320564        0.60983491424167
C           -1.14364907653700       -1.98747536044072        0.59164571777109
H           -0.17184835280326       -0.89513661454360       -3.63356866609813
H            1.16345566112695       -1.95602174044596       -4.08655241682319
H            0.77610082745344       -1.69308203679695       -2.38509767871828
H           -1.40488989029571       -2.83985841026201       -2.68845153257346
H           -1.08897404310093       -3.02029628374355       -4.41027141331414
H           -0.63453479222999       -5.14535466812799       -3.43200917613954
H            0.91205066183627       -4.43095498394261       -3.87820001547190
H            1.28327536243578       -5.37341364726737       -1.73844839662823
H            1.12912947453955       -3.64409584868733       -1.46811926070803
H           -1.44217262795948       -4.27809633683105       -1.07136296201072
H           -0.86909641864263       -6.70785607433421       -1.69510273723986
H           -0.08019399979094       -6.82341489660766       -0.12453021136762
H           -2.25412075742959       -6.30300921717574        0.99833514796535
H           -2.41810437796042       -7.68332254279676       -0.07806860240022
H           -3.01885130461282       -6.10486787517668       -0.58158053888497
H            0.79994802944848       -4.68968547496604        0.95044255993499
H           -0.91309075207231       -4.57387688384190        1.37933401930292
H            2.69501679333477       -3.52242050557028        0.70928227811185
H            4.43063729658507       -1.79212757416235        0.57353537465593
H            2.56462538576079        1.43565560360766       -1.87806247109728
H            3.22004266238381        3.28157952876809       -3.37484528443695
H            5.21715693319536        4.62707482123628       -2.92440140536521
H            6.64247697484405        4.15233278847192       -0.96104234676743
H            7.75753201216384        3.11279588734916        1.33927390972393
H            8.25663679864227        1.79450602183045        3.37006832317347
H            6.77122563176535       -0.01892670975095        4.08076303371152
H            4.75531041852993       -0.59651048651067        2.78104706679447
H            1.48576400675063        1.30562986586672        0.41574041372177
H           -1.25734963720200        1.42441613610491        0.39604673000086
H           -4.71712905640723       -0.19921581139372        2.70798823282450
H           -6.68758660934501        0.55802847804965        3.98379009938519
H           -7.98711134991747        2.50611835223569        3.26449285642009
H           -7.34082570002713        3.77975932508455        1.24709132326898
H           -6.10257067547511        4.72132085535610       -1.03232907819982
H           -4.61062000536417        5.07196742094684       -2.97180078244771
H           -2.74125904620594        3.54900000451236       -3.40358021208402
H           -2.28415422297739        1.63962467723986       -1.91033958735255
H           -4.45439444056017       -1.41476473874145        0.51363647465295
H           -2.86747237286860       -3.28640011000081        0.68010927991722
