  86
       -123.02258731
 C          0.5458612651       -1.4547291756       -2.9284137302
 C         -0.5464121949       -2.5163614023       -2.9961430429
 C          0.0076156810       -3.9429966120       -3.0374022196
 C          0.5561988676       -4.4155865006       -1.6896752888
 C         -0.5576368213       -4.7700397823       -0.6912117579
 C         -0.8747630494       -6.2682428554       -0.7368451951
 C         -2.2078564073       -6.6281394280       -0.0900927703
 C         -0.1785738182       -4.3254664780        0.7332348432
 N         -0.0828724491       -2.8933963732        0.8209149823
 C          1.0661988927       -2.1448763585        0.7582471241
 C          2.3980334172       -2.5408058514        0.8146551483
 C          3.3737698105       -1.5731825996        0.6982124635
 C          3.0465627905       -0.2202171031        0.5426235115
 N          4.0714881005        0.7261299975        0.3882556783
 C          4.1670351721        1.6315587749       -0.6464416156
 C          3.3362557744        1.8074063223       -1.7440329063
 C          3.6784208867        2.7827706651       -2.6605540265
 C          4.8209397425        3.5643356722       -2.4997671256
 C          5.6613145898        3.3803622437       -1.4204426718
 C          5.3400732682        2.4051286515       -0.4850103654
 C          5.9734073281        1.9362397853        0.7152565670
 C          7.1273506594        2.3030644938        1.3956305899
 C          7.4471051314        1.6388144515        2.5630138516
 C          6.6262566290        0.6288354792        3.0615141810
 C          5.4732748201        0.2459169493        2.4036641398
 C          5.1571431732        0.8959929966        1.2187277613
 C          1.7222618752        0.1883993046        0.5188119177
 C          0.7302102805       -0.7743355350        0.6229533663
 C         -0.7010342961       -0.7107750232        0.5998800773
 C         -1.6037918948        0.3349109172        0.4844695865
 C         -2.9586560691        0.0407053398        0.4754603287
 N         -3.8970571225        1.0749146647        0.3357271876
 C         -4.9787185627        1.3052374683        1.1579539746
 C         -5.3766317081        0.6321073701        2.3047883431
 C         -6.5021523383        1.0883323051        2.9629390333
 C         -7.2168226430        2.1924479586        2.5024794923
 C         -6.8138124127        2.8795177390        1.3751098961
 C         -5.6852022248        2.4402771121        0.6954601398
 C         -4.9849942334        2.9089964715       -0.4668868427
 C         -5.1932130108        3.9588940138       -1.3519392698
 C         -4.3145546877        4.1217601508       -2.4039376498
 C         -3.2462896113        3.2460657208       -2.5881121176
 C         -3.0180770612        2.1946875510       -1.7219452620
 C         -3.8855467954        2.0382314283       -0.6497742481
 C         -3.4041888854       -1.2817406722        0.5981656077
 C         -2.5179991626       -2.3306346435        0.7285633195
 C         -1.1579623501       -2.0453792383        0.7184019650
 H          0.1014596277       -0.4617435229       -2.9170234982
 H          1.2018790893       -1.5262559939       -3.7933014749
 H          1.1467657466       -1.5640824285       -2.0307285414
 H         -1.2079606965       -2.3977962304       -2.1373290281
 H         -1.1427376642       -2.3477524707       -3.8957815686
 H         -0.7805999394       -4.6257009149       -3.3625246654
 H          0.8041039699       -3.9841397551       -3.7830173292
 H          1.1902792643       -5.2913530976       -1.8439002627
 H          1.1865301597       -3.6278577776       -1.2840147680
 H         -1.4608495964       -4.2239479358       -0.9733125985
 H         -0.9065492171       -6.5780126089       -1.7831792369
 H         -0.0705701356       -6.8258027940       -0.2507693632
 H         -2.2044209605       -6.4195836770        0.9770146006
 H         -2.4152263551       -7.6872103411       -0.2218015500
 H         -3.0175386815       -6.0642708423       -0.5488174258
 H          0.7801110028       -4.7612494462        1.0177890433
 H         -0.9360602468       -4.6663034403        1.4435516361
 H          2.6772241878       -3.5775858166        0.9271744277
 H          4.4150408338       -1.8568539015        0.7081027677
 H          2.4590502188        1.1941240883       -1.8844919988
 H          3.0488058580        2.9398657832       -3.5238589424
 H          5.0518635307        4.3183993545       -3.2374927614
 H          6.5537214703        3.9767095233       -1.3042114244
 H          7.7570646265        3.0939039069        1.0166463211
 H          8.3417403369        1.9066412743        3.1053631395
 H          6.8961878650        0.1367635062        3.9843909292
 H          4.8336765885       -0.5265955287        2.8039251004
 H          1.4744284825        1.2333717990        0.4198852883
 H         -1.2657680139        1.3564863367        0.4113091423
 H         -4.8184218580       -0.2135499303        2.6777917931
 H         -6.8334403793        0.5805199911        3.8568141479
 H         -8.0928361581        2.5164684603        3.0441560865
 H         -7.3592028458        3.7438628724        1.0273714559
 H         -6.0291144705        4.6287243440       -1.2180331720
 H         -4.4577516251        4.9321658057       -3.1029234476
 H         -2.5841040591        3.3909683115       -3.4291095492
 H         -2.1975105647        1.5111690732       -1.8799225652
 H         -4.4658536955       -1.4747942571        0.5758573951
 H         -2.8828271421       -3.3412095910        0.8275937575
