83
 energy: -130.677507841881 gnorm: 0.000044131644 xtb: 6.7.1 (edcfbbe)
N            5.51849789503641       -7.43995686645585       -0.28122767139903
C            5.66241810792390       -6.32168905386304       -0.06945586459406
C            5.84460807677399       -4.94344625341007        0.19172280125012
C            7.11833656251640       -4.45300985626688        0.49133610386943
C            7.28719818992923       -3.10357992333100        0.74397280927657
C            6.20428482277448       -2.24269629599830        0.69616297097412
C            4.93193492646729       -2.72759181359670        0.39618660132269
C            3.77848940156729       -1.81967086918270        0.34405946783615
N            2.56780911933474       -2.36167978347232        0.41234514314508
C            1.55132802196267       -1.49936044817694        0.37692832271577
C            0.19088956324898       -2.02553687738546        0.46201578111380
C           -0.04035910976942       -3.34012867237257        0.86630497157628
C           -1.33749615780533       -3.80675954992164        0.96225749130452
C           -2.40451677632197       -2.97014305472452        0.67185101098298
C           -2.19749168728026       -1.65643179375825        0.26274479934795
Si          -3.61479688968663       -0.44924967238291       -0.11605202004225
C           -3.16973547173879        0.42342848217719       -1.73997598272492
C           -3.28155325411895        1.80268484711315       -1.88679759177162
C           -2.93892309943578        2.42512481180694       -3.07436387902511
C           -2.47912967696460        1.67411779765554       -4.14330885771736
C           -2.36266770246727        0.29928136344075       -4.01584989032957
C           -2.70233381764634       -0.31575776875485       -2.82443166948583
C           -3.74410073346777        0.82355411203261        1.28482111530645
C           -4.88725359436087        1.61006877094655        1.41204889725853
C           -4.99043597566886        2.56727709379433        2.40531286630307
C           -3.94623937452157        2.75654999634975        3.29614453482739
C           -2.80453822328639        1.97970207564917        3.18868253983382
C           -2.70810450799142        1.02404771899503        2.19223288889288
C           -5.25631810705840       -1.38640811121938       -0.25507974181628
C           -5.86703774838772       -1.61464366182324       -1.48468371667026
C           -7.06321382861990       -2.30538407442330       -1.57066847343404
C           -7.67290620428694       -2.78234876543389       -0.42216607538887
C           -7.08115492534488       -2.56123133848221        0.81102959414827
C           -5.88620699491821       -1.86922006034633        0.89048552361614
C           -0.89015900136461       -1.20486526389599        0.15178927443064
N            1.69520871736607       -0.18394085779369        0.27792481522664
C            2.94565214353165        0.26634765049482        0.20291951220655
N            3.13438590831854        1.61080208975773        0.09329444341237
C            4.33134605257319        2.25282096393043       -0.24816473287922
C            5.56607345421052        1.72329980908850       -0.58372711805223
C            6.58715498502242        2.60328971460331       -0.90418054979570
C            6.39037597205128        3.97950943294371       -0.89892230191060
C            5.15522736088658        4.51333087560889       -0.58202237011649
C            4.12085219502045        3.64691248991781       -0.25933617532505
C            2.74100207660312        3.86682246668569        0.09284945984194
C            1.98628979704452        5.02066425828554        0.24810003550565
C            0.65836926366844        4.89791935929266        0.61250945543271
C            0.09547253702674        3.64549569870111        0.82966102333564
C            0.83487249626625        2.48368313439222        0.68038991137293
C            2.16098148840656        2.59840155673885        0.29848814521877
N            4.02407192010826       -0.52152034724070        0.23572101601379
C            4.75068266941917       -4.08287927397953        0.14711222472026
H            7.95741387915833       -5.13173526687909        0.52380148564688
H            8.26841418827386       -2.72113828712504        0.97976806573609
H            6.32562026355520       -1.18992639436334        0.89897235482693
H            0.80167194222174       -3.97165914975782        1.10554469123683
H           -1.51885702388130       -4.82581406097763        1.27183107911817
H           -3.41449847095626       -3.34290475597999        0.75842940802706
H           -3.63987593722353        2.39502625225389       -1.05741293578991
H           -3.02923065207554        3.49816835993454       -3.16709446338639
H           -2.21118996386000        2.15718664865589       -5.07220614457516
H           -2.00334315689782       -0.29279148942457       -4.84614058825119
H           -2.60081290246426       -1.38826616643789       -2.72924094611822
H           -5.70620429921623        1.46411159033422        0.72191410566100
H           -5.88537929251365        3.16792582926916        2.48614478371801
H           -4.02257479652789        3.50431755905055        4.07248446181315
H           -1.98633971688075        2.12065931038507        3.88130454571048
H           -1.81400833151296        0.42113283805424        2.11803723465952
H           -5.39967903866060       -1.24105326868391       -2.38438706057758
H           -7.52228394263833       -2.47149029389828       -2.53507148857232
H           -8.60679426595120       -3.32215610451428       -0.48715944060707
H           -7.55386489108920       -2.92847583224902        1.71110741586742
H           -5.43284010441053       -1.69350173361063        1.85612377598125
H           -0.69431965480123       -0.20122651966004       -0.19468739432471
H            5.72482772729196        0.65872390150832       -0.59972970517956
H            7.55665611747954        2.20659349846810       -1.16621712269907
H            7.21031853519456        4.63488961879270       -1.15122451933608
H            4.99189979687054        5.57988601408452       -0.58800524774590
H            2.43261136549620        5.99013558292893        0.08913168418922
H            0.05132374550533        5.78202131107935        0.73640752145468
H           -0.94011163942442        3.56896471739842        1.12477373313376
H            0.39052128273270        1.52032883803116        0.85761856826313
H            3.76379037464365       -4.45393980938883       -0.08381272701796
