83
 energy: -130.592340042471 gnorm: 0.000072699747 xtb: 6.7.1 (edcfbbe)
N            5.66305235225345       -6.90891971532287        0.04537006217890
C            5.76006687348645       -5.76539931363881       -0.00612404629894
C            5.88284485091041       -4.36100359454305       -0.06944469874928
C            7.15740463340443       -3.77267513732339       -0.07545449412543
C            7.25758004724788       -2.39056960385266       -0.13960592443510
C            6.12970397885750       -1.60168559052020       -0.19115381981492
C            4.84316847921033       -2.18136740341864       -0.18048073222693
C            3.66789631584143       -1.37041764290396       -0.22322033329692
N            2.46896675819195       -1.94274382085731       -0.31420110149633
C            1.39404446720940       -1.18339652116971       -0.32206214623991
C            0.09020357899248       -1.79412571348799       -0.39687547585600
C           -0.06014109515550       -3.16118774792708       -0.66179962723899
C           -1.31937240371806       -3.71814733108512       -0.72473430367479
C           -2.44530258939723       -2.93329914571171       -0.51377300071060
C           -2.31343872504278       -1.57559578790298       -0.23039963187943
Si          -3.86098679965138       -0.52803866219053        0.15011634093690
C           -5.12706806681323       -0.90890426519940       -1.21258535186644
C           -4.74183744708132       -0.91307418146344       -2.55129604942302
C           -5.65984368900202       -1.16526617338673       -3.55489025958433
C           -6.98267921099869       -1.42425122115376       -3.23383411904470
C           -7.37998384058049       -1.42826838682346       -1.90699818581402
C           -6.45836689162936       -1.17439641323884       -0.90610688029087
C           -3.43098848133083        1.31786730170944        0.17587511478187
C           -3.92508353423605        2.20056549527652       -0.78062752351178
C           -3.61752508064855        3.54901890191424       -0.73154110289841
C           -2.79985804230158        4.03849175989622        0.27333769413849
C           -2.29770542204524        3.17371117952348        1.23231279771754
C           -2.61622961426330        1.82901984275447        1.18475812591135
C           -4.53109101715242       -1.00488011914724        1.86009391287872
C           -4.17443784327535       -2.19362849001672        2.49036710689657
C           -4.70016764185143       -2.53119451974403        3.72530814729746
C           -5.59381086266396       -1.68060521603438        4.35494826454926
C           -5.95484814315212       -0.49017879198877        3.74451541566276
C           -5.42575838015675       -0.15692407656425        2.51095228387486
C           -1.05510477228409       -1.01396295056589       -0.18647140065490
N            1.47406827384565        0.18085497654395       -0.23501249873970
C            2.68909084613288        0.70136664741135       -0.19807585975444
N            2.79270241656514        2.07448297358163       -0.16539831585661
C            1.85821233240841        2.97143523445483       -0.66826120975376
C            0.65486958990425        2.72877507587298       -1.31177477877863
C           -0.07933579722857        3.82052919097843       -1.74323813290676
C            0.37571022221180        5.12028426364676       -1.54985972393718
C            1.58422063331608        5.36773134715762       -0.91950992847597
C            2.33510749406369        4.28817544895566       -0.48165270525056
C            3.61640035171708        4.17640376720868        0.17142143248625
C            4.54576026639135        5.10779913844793        0.60695569790486
C            5.70237884865114        4.65253866068980        1.21882420756050
C            5.92890118164032        3.29213546057573        1.40225349888357
C            5.01147034814121        2.34574190869388        0.97777507028538
C            3.86311690156469        2.79592254241843        0.34503383788044
N            3.79770717449816       -0.00244749747385       -0.18957798786280
C            4.73970858585318       -3.57911490176574       -0.12210017297173
H            8.03704415096597       -4.39620416726314       -0.03285923017192
H            8.23447701155435       -1.92969527576714       -0.14990057331006
H            6.20940877717571       -0.52742132650267       -0.25198216603084
H            0.82296086494822       -3.76064381192736       -0.82444831841556
H           -1.43195532191196       -4.77098060871538       -0.94055011805407
H           -3.42741881913982       -3.37761476011868       -0.57368162194486
H           -3.70952001573637       -0.71834451777075       -2.80635671811646
H           -5.34395023558375       -1.16300977476400       -4.58845167484656
H           -7.70033825688418       -1.62563775237865       -4.01603989099942
H           -8.41016054318453       -1.63128796501001       -1.65124675177865
H           -6.77332968847756       -1.18233592620681        0.12704082944103
H           -4.56327728662664        1.82512344215496       -1.56737149191571
H           -4.01636924374958        4.22005936445398       -1.47904965347609
H           -2.55535509108284        5.08969161176640        0.31275216006742
H           -1.65856763882356        3.55021057705906        2.01846916410610
H           -2.23247714881464        1.16240443763984        1.94474032898189
H           -3.47227258604340       -2.85991068033940        2.01040663479635
H           -4.41105032123769       -3.45896014595272        4.19843444013334
H           -6.00399188449719       -1.94222985034577        5.31964992422711
H           -6.64979853382758        0.17864081487798        4.23205748040272
H           -5.70787322605090        0.77467770461652        2.04145203225005
H           -0.91981334606821        0.03612499816342        0.02457893466408
H            0.30681084740987        1.72049101241085       -1.46885804978038
H           -1.01978566180665        3.65428464592108       -2.24463536369361
H           -0.21957221335439        5.94705486350327       -1.90625319979675
H            1.93972778672906        6.37623944122025       -0.77658274265193
H            4.36911597591036        6.16348983172330        0.47218356711697
H            6.43708648034851        5.36215410440189        1.56781349000821
H            6.83341427804747        2.96500420854548        1.89226563720348
H            5.17698216128086        1.29123608033215        1.13158479765248
H            3.76125570341435       -4.03540046027876       -0.11286117744714
