  68
       -103.09942715
 C         -7.3029328666        1.1009133502       -0.5802069025
 C         -6.4060246296       -0.0131492664       -0.0112874884
 C         -7.2706320249       -1.1533648934        0.5564434934
 C         -5.5662480911        0.5594914536        1.1136036904
 C         -6.1965256611        1.1055864083        2.2231086194
 C         -5.4868427857        1.6139175626        3.2950977120
 C         -4.1047939033        1.5633949610        3.2737909079
 C         -3.4531227663        1.0270166519        2.1834636299
 C         -4.1678932570        0.5376103074        1.0858002141
 N         -3.4855689665        0.0122877715       -0.0007914092
 C         -2.0669921136        0.0134402651        0.0075509886
 C         -1.3681222335        1.2020876800       -0.1831348512
 C          0.0114742664        1.2004474114       -0.1792188922
 C          0.7107674656        0.0105649336        0.0141977779
 C          2.1739445202        0.0069030618        0.0127355610
 N          2.7997031088        1.1609223859       -0.1942183839
 C          4.1293731459        1.1093431153       -0.1964672386
 C          4.8651907274        2.3518584502       -0.4268209477
 C          4.1781021690        3.5513396330       -0.6034354486
 C          4.8768717461        4.7228143999       -0.8206295793
 C          6.2624257270        4.7081066036       -0.8648132418
 C          6.9505516396        3.5172908493       -0.6903714543
 C          6.2580282331        2.3424733716       -0.4714046690
 N          4.8289436929       -0.0043048203       -0.0015816801
 C          4.1223179519       -1.1113699612        0.2047879655
 C          4.8492822459       -2.3596668823        0.4318967630
 C          4.1525809897       -3.5420454778        0.6741110151
 C          4.8423335405       -4.7190166603        0.8903356129
 C          6.2283941930       -4.7271531634        0.8664484552
 C          6.9261021806       -3.5535773275        0.6256200144
 C          6.2425802802       -2.3730177263        0.4091053506
 N          2.7924268589       -1.1515643716        0.2169096673
 C          0.0079718704       -1.1776026565        0.2062914725
 C         -1.3713494134       -1.1763578382        0.2037466046
 C         -4.1510927454       -0.5202802183       -1.0945489691
 C         -3.4200405330       -0.9950702478       -2.1878918908
 C         -4.0545298885       -1.5387387275       -3.2847254603
 C         -5.4353166832       -1.6109921453       -3.3171366851
 C         -6.1614196845       -1.1168887615       -2.2495255768
 C         -5.5485789595       -0.5636763280       -1.1337564681
 H         -7.9373784315        1.5211008702        0.1945248383
 H         -6.6861868464        1.8984168335       -0.9896094800
 H         -7.9400335549        0.7192146076       -1.3725169064
 H         -7.9165202523       -0.7912449006        1.3509852842
 H         -6.6308772761       -1.9343134445        0.9628361002
 H         -7.8940090307       -1.5892264143       -0.2188386637
 H         -7.2747809919        1.1351082408        2.2590071698
 H         -6.0089176116        2.0347590910        4.1408057909
 H         -3.5300309201        1.9377995648        4.1077043346
 H         -2.3754777082        0.9797050718        2.1831234570
 H         -1.9187807742        2.1193092107       -0.3322722670
 H          0.5671471287        2.1123010379       -0.3297343556
 H          3.1001007171        3.5440663006       -0.5653421073
 H          4.3431764624        5.6521218647       -0.9565513589
 H          6.8065364882        5.6256790322       -1.0351963416
 H          8.0301353990        3.5085605332       -0.7257353451
 H          6.7766565638        1.4066639859       -0.3344509809
 H          3.0742907343       -3.5168111630        0.6894308908
 H          4.3010208918       -5.6347301931        1.0784392875
 H          6.7654913110       -5.6489598459        1.0362437666
 H          8.0060921336       -3.5628039053        0.6075089571
 H          6.7687664394       -1.4503504060        0.2212724094
 H          0.5613680269       -2.0906628448        0.3577241784
 H         -1.9247805686       -2.0925314927        0.3486064024
 H         -2.3433380683       -0.9313074801       -2.1790013118
 H         -3.4672744582       -1.9023130080       -4.1146855878
 H         -5.9438498689       -2.0379935704       -4.1679798575
 H         -7.2386627593       -1.1647381187       -2.2932143769
