49
 energy: -73.206835125546 gnorm: 0.000052638523 xtb: 6.7.1 (edcfbbe)
O            2.16347712441813        0.68834726941237        2.02378155064658
B            2.82153631596884        0.18366765147728        0.94483818321631
O            3.93862790012879        0.82391444532942        0.53955045453964
C            2.40711590288142       -1.14218177722243        0.17904150231633
C            3.37169086308888       -2.12608253957960       -0.02900238543883
C            3.06994224243967       -3.31102498125808       -0.67570639645128
C            1.78488913972506       -3.52908217552125       -1.14182996305450
C            0.81939340562812       -2.55653462111420       -0.95945826255575
C            1.10655766266097       -1.36395062293467       -0.30071829892943
Si          -0.24511850277200       -0.04919608706579       -0.11451420625058
C           -1.04324164640358       -0.20680706000670        1.60372566897769
C           -2.16884518363216        0.54408597319994        1.93291085489890
C           -2.75671078787022        0.44375900097177        3.18072509583670
C           -2.23135211138555       -0.42076362926319        4.12697622258749
C           -1.12410079030539       -1.19010522068484        3.81269178734956
C           -0.53923512273549       -1.08245017676853        2.56274080220517
C            0.52443591010688        1.66023111818506       -0.37795336599892
C            0.22048688145059        2.75084808490481        0.42947772569589
C            0.82140030081644        3.97957067616045        0.22433369289660
C            1.74179873906528        4.13938317720148       -0.79769282958775
C            2.05739090781641        3.06369400328795       -1.61054818606456
C            1.45391024469151        1.83776517905458       -1.39917828343129
C           -1.61772821781128       -0.33426447484331       -1.39124033803091
C           -1.63647206070846        0.34188938462758       -2.60683242520171
C           -2.63360023974537        0.11032542838956       -3.53738619431558
C           -3.63495176940606       -0.80680909572307       -3.26665173209193
C           -3.63440718174042       -1.48630732293359       -2.05983966397785
C           -2.63499245224799       -1.24904619813613       -1.13401453166152
H            1.37783683495168        0.22766272994167        2.31774829588040
H            4.13393316706203        1.61127710292629        1.04973957951183
H            4.37619686900569       -1.94878442173767        0.32686687319216
H            3.83551354349459       -4.05986095963885       -0.82060689788461
H            1.53839803000950       -4.44945019458720       -1.65205482259824
H           -0.17995521235071       -2.72006731974238       -1.33843964702000
H           -2.59326526873108        1.20773700834519        1.19283385429896
H           -3.62826411960435        1.03734417188968        3.41693692303557
H           -2.68850250184580       -0.50073265111183        5.10239892764056
H           -0.71793876299286       -1.87717014008442        4.54113463165447
H            0.31122849615388       -1.70565539854199        2.31734701437069
H           -0.48798127973737        2.63341194289550        1.23679737688532
H            0.57522373351900        4.81448258994698        0.86515724718939
H            2.21455445338734        5.09794968288807       -0.95751519886772
H            2.77934727404317        3.17971178778595       -2.40607402759821
H            1.71628967422521        0.99886391503709       -2.02790256063368
H           -0.86086109516461        1.06288287631014       -2.82223494239556
H           -2.63134917248438        0.64608207874266       -4.47602189071216
H           -4.41448599093853       -0.98989393002668       -3.99207582082264
H           -4.41517108551583       -2.20102862190484       -1.84138935332538
H           -2.64264706059398       -1.77763965847314       -0.19087003990558
