49
 energy: -73.207286009500 gnorm: 0.000089710248 xtb: 6.7.1 (edcfbbe)
O            4.13735386886084       -0.57710875187280        0.14817049452836
B            2.81569025174201       -0.76526554882670       -0.11289776796474
O            2.03848709456056       -1.27496732363309        0.86446085889358
C            2.12930629694710       -0.44574854862378       -1.49596728974103
C            2.86061325873964       -0.49787748508074       -2.68228790745729
C            2.27046922764905       -0.25064164007495       -3.90826470722670
C            0.92391566493202        0.06402695630615       -3.96337251238927
C            0.18675334368964        0.12863834222578       -2.79446754214753
C            0.76527699755703       -0.12439370594950       -1.55505214982779
Si          -0.28845986196693        0.02233186391820        0.01686057103522
C            0.60934174015554        1.06894243903452        1.31905481428889
C            1.47422644603905        2.08215304061951        0.91709585357849
C            2.15382530763953        2.85314669124216        1.84283505728479
C            1.97960747071985        2.62272053954100        3.19712598099421
C            1.12438086361249        1.61724812958897        3.61480097373210
C            0.44799402758122        0.85054822962010        2.68227573292245
C           -1.85197981909671        1.00217941082170       -0.46165385422275
C           -1.93269857138952        2.38060815629407       -0.29347689186676
C           -3.07027855292792        3.08224535824640       -0.65135203848707
C           -4.15690869534610        2.41312287435208       -1.18812956518506
C           -4.09739847373616        1.04033443901391       -1.36087195376426
C           -2.95641495054043        0.34729287292913       -0.99955590382992
C           -0.92730526039645       -1.65147849971501        0.63230911895516
C           -1.93900956126770       -1.70525892652269        1.58695569941274
C           -2.43634222506602       -2.91566792753838        2.03506492161900
C           -1.93361031845654       -4.10103783551983        1.52542006815118
C           -0.93701510584250       -4.06533344290344        0.56453873645556
C           -0.44160659514507       -2.85121723454457        0.12389159520803
H            4.65896781618393       -0.20415805661313       -0.56042910159891
H            2.48020662086964       -1.43216534392402        1.69934616776670
H            3.91269559084461       -0.75479708919269       -2.64735000312422
H            2.85713361949883       -0.30252752536310       -4.81441721340794
H            0.45075384663745        0.26109551922436       -4.91480896007711
H           -0.86200565016957        0.38441091255543       -2.84353382919798
H            1.61935187431848        2.26426370060821       -0.13898225618005
H            2.82129580244957        3.63568216381980        1.50974838720652
H            2.50945396032943        3.22279782981656        3.92301549157960
H            0.98611462506578        1.43091758038306        4.67073757455637
H           -0.20956147321046        0.06118820322241        3.01585360526203
H           -1.09091073709232        2.90996822280103        0.12990146289539
H           -3.11144448372738        4.15327087653250       -0.51065411089280
H           -5.04703209028709        2.95807482180449       -1.46836502743546
H           -4.94305953926286        0.51081604158224       -1.77689767025188
H           -2.91814421102789       -0.72507799636386       -1.13182924361906
H           -2.34971096509755       -0.78324833306678        1.97449039617337
H           -3.21980907399782       -2.93666819258124        2.77964393212694
H           -2.32088975663639       -5.04852101082700        1.87227580439981
H           -0.54761616116954       -4.98807521600270        0.15760284438627
H            0.33768332690180       -2.82603372466730       -0.62308251742587
