49
 energy: -73.091306692591 gnorm: 0.000122228073 xtb: 6.7.1 (edcfbbe)
O            4.28664212924147        0.21957821824784       -0.10904729394512
B            3.07369640340215       -0.40425327609445       -0.21414495126698
O            2.73095265783275       -1.27818523082542        0.77053527292909
C            2.07599837048830       -0.19208851588091       -1.38717003767183
C            2.34141945693026        0.54356544962021       -2.53570598222870
C            1.52917764094122        0.45167200782981       -3.65582062613991
C            0.44130773421310       -0.46827137078096       -3.68214593533546
C            0.09979663429333       -1.14394724450991       -2.55762233379279
C            0.73276585903468       -0.74292439864593       -1.33493157290546
Si          -0.41182146492548       -0.09493081338881        0.04182846956869
C            0.63859444024620        0.82963176766000        1.30757381735277
C            1.42422008465149        1.90691460592366        0.90928583485145
C            2.24654223709043        2.56104924640980        1.80858570092226
C            2.29761026405422        2.14427482114895        3.12805740581367
C            1.51826765231212        1.07652581502798        3.54070579819770
C            0.69770309344666        0.42677909425249        2.63602970480795
C           -1.78296216842870        1.04058319200228       -0.60114525842319
C           -1.88444497830676        2.37408449801754       -0.20665132703632
C           -2.86509561809567        3.20057746781724       -0.72240110479844
C           -3.76992112496830        2.71194915754268       -1.65066333218137
C           -3.68497581252380        1.38990786365232       -2.05619185382763
C           -2.70242188632099        0.56841409633240       -1.53789367230603
C           -1.15398567665445       -1.68798581018903        0.76429952570522
C           -2.51771219340019       -1.80318629580701        1.00924705271235
C           -3.04290809666160       -2.95850071034018        1.56096745050227
C           -2.20863199051344       -4.01794861431504        1.87619828928732
C           -0.84744598457128       -3.91446580837484        1.64062690389454
C           -0.32482053203185       -2.75911239332001        1.08773428848880
H            4.50090236233560        0.83073096824837       -0.81078523420305
H            3.38800359959794       -1.33405748769544        1.46480094374025
H            3.26698565231918        1.10434582246619       -2.60940182869488
H            1.81413164110623        0.95161498795049       -4.56877848106676
H           -0.05346923762487       -0.66904544970338       -4.62122156184148
H           -0.68548902928269       -1.88420662578544       -2.54795182883082
H            1.38828491167581        2.23452663040556       -0.12029764596299
H            2.85134894602410        3.39525569600734        1.48188348371594
H            2.94328067341288        2.64961085516059        3.83195411033326
H            1.55420717991745        0.74814064514503        4.56999792751914
H            0.09695573141953       -0.41028076940498        2.96156127654534
H           -1.18822454395413        2.76288871164155        0.52272290488377
H           -2.92749776442804        4.22995944927751       -0.39864484643641
H           -4.53721163378003        3.35649413674509       -2.05436460698577
H           -4.38852136179625        1.00059439511676       -2.77858536992411
H           -2.64626404630739       -0.46130721199649       -1.85897442957477
H           -3.17238174367579       -0.97831843073078        0.76753355368774
H           -4.10519798390859       -3.03249693431757        1.74615240097636
H           -2.61871152396048       -4.92123777667323        2.30481503614028
H           -0.19305503701302       -4.73837193910111        1.88770118626338
H            0.73607376795929       -2.67376441900210        0.90553275332382
