  49
        -73.08312965
 O          4.1636705205       -0.6271683438       -0.7440197361
 B          2.8028722090       -0.5783509789       -0.9005171880
 O          2.0779605184       -1.6669604212       -0.5097546981
 C          2.0124520135        0.6174105708       -1.4762426928
 C          2.5957839646        1.7895112129       -1.9822851675
 C          1.8797266761        2.6459115366       -2.7797315698
 C          0.5034567686        2.3874644661       -3.0745051382
 C         -0.1307249868        1.3303283815       -2.4936160074
 C          0.5665277821        0.5699678415       -1.5337987071
 Si        -0.3544179637        0.0130406535        0.0188767955
 C          0.8242964531       -0.0624626887        1.4914544119
 C          1.7782453310        0.9348924173        1.6670466354
 C          2.6877339746        0.8768877875        2.7083024788
 C          2.6564419466       -0.1852901056        3.5952445648
 C          1.7110761270       -1.1850395373        3.4345480005
 C          0.8062224594       -1.1222992967        2.3899604374
 C         -1.7939240510        1.1572951602        0.4617894007
 C         -1.6735933294        2.1522834014        1.4331194080
 C         -2.7158976973        3.0160261474        1.7064299678
 C         -3.9103433154        2.9093780433        1.0101258576
 C         -4.0500607228        1.9279364666        0.0416352438
 C         -3.0052505094        1.0655948841       -0.2265814771
 C         -1.1389400179       -1.6732722427       -0.4218564591
 C         -2.1355548222       -2.1664458583        0.4116383734
 C         -2.7293942588       -3.3895088911        0.1541652922
 C         -2.3394678234       -4.1300838177       -0.9490675059
 C         -1.3530340089       -3.6425676031       -1.7893148654
 C         -0.7573468578       -2.4206335893       -1.5272529303
 H          4.6396419908        0.1510273661       -1.0255339890
 H          2.6102079817       -2.3631079289       -0.1259168443
 H          3.6583278445        1.9533594305       -1.8433182939
 H          2.3728467846        3.4708909163       -3.2710727306
 H         -0.0242009681        3.0374374941       -3.7554371634
 H         -1.1825676833        1.1557796932       -2.6653037496
 H          1.8069115265        1.7662149227        0.9769425659
 H          3.4231527386        1.6599968028        2.8286619868
 H          3.3669334821       -0.2352850145        4.4079172171
 H          1.6833444212       -2.0173178573        4.1240128417
 H          0.0791327056       -1.9114939511        2.2631557562
 H         -0.7486580068        2.2375110085        1.9857559994
 H         -2.6020738216        3.7757014002        2.4669785074
 H         -4.7271739750        3.5832757393        1.2238861450
 H         -4.9794704946        1.8357552991       -0.5028645897
 H         -3.1281697255        0.2953632877       -0.9754001717
 H         -2.4521668880       -1.5860541253        1.2662245024
 H         -3.5001703061       -3.7626577967        0.8137921856
 H         -2.8060642324       -5.0830644960       -1.1537593889
 H         -1.0468820695       -4.2160285672       -2.6527408631
 H          0.0179840466       -2.0457582885       -2.1771815818
