  99
  -155.630187530000       0.303474371327355      !
 C          7.1069794821       -3.0309336581        1.7201489766
 C          6.5050383201       -4.2657706502        1.9076099234
 C          5.2214832858       -4.4873287417        1.4480327444
 C          4.5245541537       -3.4646247163        0.8079287158
 C          3.1723736332       -3.7022525638        0.3026407354
 N          2.7504310185       -4.9603272923        0.2155039387
 C          1.5339571907       -5.1345820674       -0.2924843773
 C          1.0320523048       -6.5019243111       -0.4256849940
 C         -0.2779750689       -6.7284696790       -0.8436174913
 C         -0.7473389742       -8.0207766739       -0.9752200439
 C          0.0832942284       -9.0942940994       -0.6932381795
 C          1.3870432386       -8.8737648574       -0.2766494075
 C          1.8625708089       -7.5840343934       -0.1414398495
 N          0.7476305241       -4.1398922986       -0.6964491748
 C          1.2397738118       -2.9149703627       -0.5484574838
 C          0.4129669332       -1.7835525597       -0.9704530063
 C         -0.6940132286       -1.9843433757       -1.7906682103
 C         -1.4344172205       -0.8973078553       -2.2161595056
 C         -1.0961132557        0.3820015744       -1.8119930451
 C         -0.0126502090        0.5934343497       -0.9595677433
 C          0.3459062410        1.9455961027       -0.4963380631
 C          1.6761182417        2.3394255644       -0.5415291936
 C          2.0641160696        3.6087608006       -0.1294652790
 N          3.4219183944        3.9499282955       -0.1273027466
 C          4.4252193684        3.1962265815        0.4500681078
 C          4.3372801515        2.0143081227        1.1714409346
 C          5.5040791167        1.4824568733        1.6848612003
 C          6.7343524258        2.1061224014        1.4873474287
 C          6.8257083833        3.2933457560        0.7886183134
 C          5.6644510731        3.8521319355        0.2708567143
 C          5.3848781070        5.0602236263       -0.4542240490
 C          6.1790516889        6.0951939624       -0.9296846381
 C          5.5765241994        7.1288312141       -1.6185068348
 C          4.2024705720        7.1320926437       -1.8483601592
 C          3.3912658645        6.1136171443       -1.3862339637
 C          3.9879487499        5.0838694658       -0.6732982656
 C          1.0980685536        4.5157820109        0.2960665424
 C         -0.2276369819        4.1319075078        0.3356784688
 C         -0.6211256063        2.8483424087       -0.0296024973
 C         -2.0266967619        2.4400415308        0.1196794360
 C         -3.0577161790        3.2092653971       -0.4114649202
 C         -4.3703625696        2.7881809925       -0.3244540864
 C         -4.6774699217        1.5933915635        0.3195581510
 N         -5.9964930212        1.1272699584        0.3701791485
 C         -7.1070108207        1.8438505163        0.7680772324
 C         -7.1958043033        3.1419096948        1.2499305138
 C         -8.4445365139        3.6131409028        1.6073044535
 C         -9.5816835971        2.8155997664        1.4992386069
 C         -9.4961933965        1.5155445666        1.0427475666
 C         -8.2521009684        1.0191577044        0.6768271768
 C         -7.8003339238       -0.2549466500        0.1916043600
 C         -8.4467127004       -1.4453284571       -0.1147852987
 C         -7.6972327435       -2.4998195304       -0.5963719875
 C         -6.3230326876       -2.3736722930       -0.7884328968
 C         -5.6569494149       -1.2003751356       -0.4906038702
 C         -6.4016719799       -0.1456398549        0.0182403644
 C         -3.6556578728        0.8470207439        0.9021133956
 C         -2.3464721599        1.2642574209        0.7962558378
 C          0.7463148187       -0.4979015125       -0.5584605298
 N          2.4451632837       -2.6476678740       -0.0549785093
 C          5.1295287368       -2.2218275738        0.6312322640
 C          6.4196550036       -2.0121863253        1.0790020897
 H          8.1140641942       -2.8632149508        2.0731913710
 H          7.0420456768       -5.0570112946        2.4099853574
 H          4.7385303655       -5.4430784727        1.5798022414
 H         -0.9096331966       -5.8801975611       -1.0561768670
 H         -1.7630984216       -8.1954788746       -1.2988869015
 H         -0.2856412783      -10.1040800125       -0.7991866202
 H          2.0323768711       -9.7121337587       -0.0587949053
 H          2.8750422857       -7.3923555098        0.1776088717
 H         -0.9449105347       -2.9881391645       -2.0949485656
 H         -2.2808646709       -1.0438456954       -2.8712697181
 H         -1.6691633733        1.2259821457       -2.1661497087
 H          2.4206902922        1.6576507385       -0.9247610196
 H          3.3870682794        1.5323096323        1.3449775103
 H          5.4576865272        0.5669918631        2.2560291814
 H          7.6259633299        1.6582934773        1.9013677199
 H          7.7768053290        3.7857579964        0.6523409671
 H          7.2459634116        6.0855454904       -0.7647219414
 H          6.1757878086        7.9448946323       -1.9939686693
 H          3.7618457356        7.9476242758       -2.4028205141
 H          2.3298049244        6.1159264515       -1.5838367856
 H          1.3930535386        5.5022819914        0.6198575932
 H         -0.9735378821        4.8256211110        0.6955573523
 H         -2.8229015121        4.1257182403       -0.9336028013
 H         -5.1601959063        3.3681489217       -0.7779808862
 H         -6.3178938713        3.7615727247        1.3546878123
 H         -8.5407053470        4.6215578323        1.9821527163
 H        -10.5400748581        3.2218681583        1.7865364152
 H        -10.3749089106        0.8920721386        0.9740948346
 H         -9.5140619892       -1.5375940715        0.0185778052
 H         -8.1799082585       -3.4352263671       -0.8377201634
 H         -5.7654947765       -3.2111143960       -1.1814261003
 H         -4.5939627435       -1.1077383449       -0.6579839874
 H         -3.8978325540       -0.0576199165        1.4390760699
 H         -1.5597507163        0.6792993319        1.2487733867
 H          1.5938476632       -0.3707735512        0.0976457521
 H          4.5809933345       -1.4381499914        0.1319520722
 H          6.8926529611       -1.0536928282        0.9241554818
  99
  -155.630159360000       0.294561501383486      !
 C          7.0851870838       -3.0692647654        1.7261275263
 C          6.3968194059       -2.0369050900        1.1078736179
 C          5.1070162207       -2.2378940845        0.6551019370
 C          4.5030403533       -3.4850442460        0.8039409503
 C          3.1497405275       -3.7115127841        0.2965816417
 N          2.7154969303       -4.9654672921        0.2100580396
 C          1.4962194288       -5.1279235996       -0.2952624658
 C          0.9756899986       -6.4892350532       -0.4182476845
 C         -0.3403863799       -6.6996172608       -0.8255855567
 C         -0.8295601217       -7.9857771887       -0.9444950780
 C         -0.0129204151       -9.0692361331       -0.6596468194
 C          1.2969833926       -8.8648430074       -0.2540898300
 C          1.7924765563       -7.5812539897       -0.1320636272
 N          0.7205174314       -4.1260930212       -0.7020078272
 C          1.2253262321       -2.9061488827       -0.5561953359
 C          0.4095456558       -1.7672602432       -0.9791766255
 C         -0.6961388260       -1.9574541705       -1.8035640191
 C         -1.4281684586       -0.8638534604       -2.2267902305
 C         -1.0831775895        0.4112177599       -1.8151664424
 C         -0.0009781548        0.6117411324       -0.9584788644
 C          0.3607004907        1.9596905928       -0.4855983448
 C          1.6905895732        2.3541628421       -0.5316728269
 C          2.0773145439        3.6231734982       -0.1175999241
 N          3.4338945605        3.9698875809       -0.1227252427
 C          4.4445143599        3.2254081710        0.4532956704
 C          4.3675787652        2.0460471634        1.1800750812
 C          5.5402366698        1.5247381861        1.6913919522
 C          6.7654009448        2.1561734539        1.4866092586
 C          6.8458397462        3.3403625077        0.7812203753
 C          5.6787756794        3.8882605158        0.2647788306
 C          5.3883948019        5.0898387153       -0.4668896786
 C          6.1738820202        6.1256779413       -0.9549187140
 C          5.5614964297        7.1503756992       -1.6483909747
 C          4.1861519491        7.1440390968       -1.8703898571
 C          3.3834372232        6.1246364501       -1.3955855011
 C          3.9902861966        5.1036992964       -0.6786873433
 C          1.1111904317        4.5271328092        0.3143844989
 C         -0.2137884376        4.1410796240        0.3585979482
 C         -0.6062546733        2.8586444628       -0.0112486327
 C         -2.0099996932        2.4441613847        0.1387008901
 C         -3.0458661899        3.2096398236       -0.3881846500
 C         -4.3554265836        2.7781507212       -0.3058918655
 C         -4.6546398336        1.5766782705        0.3293061991
 N         -5.9699875642        1.0995438194        0.3728243777
 C         -7.0874095282        1.8050952983        0.7709725764
 C         -7.1876285339        3.0986876318        1.2624671696
 C         -8.4413787711        3.5582875550        1.6175832952
 C         -9.5722694089        2.7534651679        1.4984139639
 C         -9.4755058284        1.4578027579        1.0318826371
 C         -8.2262864718        0.9732928847        0.6674131693
 C         -7.7633485003       -0.2933626759        0.1732203262
 C         -8.4005278944       -1.4846829141       -0.1484934768
 C         -7.6418133569       -2.5294654747       -0.6368101080
 C         -6.2673078031       -2.3928307772       -0.8194963662
 C         -5.6102114461       -1.2184191474       -0.5061654330
 C         -6.3645289797       -0.1731300855        0.0080432565
 C         -3.6284239055        0.8346889933        0.9095817640
 C         -2.3223301470        1.2623760567        0.8083100642
 C          0.7507633746       -0.4856705292       -0.5611147319
 N          2.4324290275       -2.6502017690       -0.0613657252
 C          5.2009417137       -4.5210632193        1.4214028963
 C          6.4845806453       -4.3088602367        1.8852159771
 H          8.0921524490       -2.9084400130        2.0829806167
 H          6.8688804187       -1.0745339208        0.9751551654
 H          4.5574577377       -1.4437379031        0.1737198952
 H         -0.9608400102       -5.8437264490       -1.0405579720
 H         -1.8502245664       -8.1477759860       -1.2590842109
 H         -0.3977442195      -10.0742445342       -0.7542235465
 H          1.9314751552       -9.7110714448       -0.0345431296
 H          2.8097827716       -7.4021953631        0.1789113000
 H         -0.9521263911       -2.9582351112       -2.1134767225
 H         -2.2732954975       -1.0018927523       -2.8854070442
 H         -1.6506312616        1.2604519169       -2.1657182957
 H          2.4350149500        1.6742554848       -0.9186633944
 H          3.4213309646        1.5581111353        1.3588472942
 H          5.5024420212        0.6116255141        2.2670935564
 H          7.6616572010        1.7169122824        1.8998777757
 H          7.7929658286        3.8386529113        0.6386240731
 H          7.2417366895        6.1235074017       -0.7960042287
 H          6.1539784596        7.9666431828       -2.0341413944
 H          3.7378035171        7.9523556200       -2.4291932348
 H          2.3208432831        6.1190666370       -1.5869876127
 H          1.4060686782        5.5133442198        0.6393335101
 H         -0.9592898077        4.8321184706        0.7244504971
 H         -2.8171420476        4.1307983732       -0.9046671853
 H         -5.1487885371        3.3548710447       -0.7573944036
 H         -6.3145596699        3.7235127250        1.3767304450
 H         -8.5463949709        4.5628905235        2.0002364581
 H        -10.5346291579        3.1502651954        1.7855707578
 H        -10.3493988958        0.8286181896        0.9544931112
 H         -9.4681085098       -1.5847223976       -0.0224449202
 H         -8.1173796790       -3.4651640165       -0.8908853190
 H         -5.7024274648       -3.2225343702       -1.2183270812
 H         -4.5471228802       -1.1172756597       -0.6678050240
 H         -3.8645964112       -0.0749342117        1.4407579706
 H         -1.5321758559        0.6811656188        1.2596467516
 H          1.5969040501       -0.3665325660        0.0982962641
 H          4.7188023486       -5.4798603809        1.5317901326
 H          7.0229545577       -5.1113024250        2.3681880998
  99
  -155.629799260000       0.201226643434864      !
 C          6.0832571540       -2.9962075582        3.4166914979
 C          5.2201025142       -1.9658648776        3.0768242024
 C          4.1849608004       -2.1940199731        2.1911699612
 C          4.0013592183       -3.4624357800        1.6432449863
 C          2.8973782708       -3.7068600957        0.7145598035
 N          2.6743368349       -4.9552295250        0.3143399797
 C          1.6473495370       -5.1281925012       -0.5129853859
 C          1.3527655752       -6.4861491864       -0.9699934225
 C          0.2992938479       -6.7138820811       -1.8534899551
 C          0.0221329227       -7.9969625112       -2.2829395018
 C          0.7908140021       -9.0608152517       -1.8366442790
 C          1.8398462288       -8.8395205774       -0.9577107613
 C          2.1222775482       -7.5588808614       -0.5240941467
 N          0.8695010330       -4.1410430214       -0.9510320839
 C          1.1742944102       -2.9244367944       -0.5132449509
 C          0.3679379884       -1.7947454891       -0.9765981339
 C         -0.7409117965       -1.9916351184       -1.7956893548
 C         -1.4752539524       -0.9019883006       -2.2257705074
 C         -1.1237998278        0.3796444985       -1.8382351943
 C         -0.0258479130        0.5885848138       -1.0055728799
 C          0.3675253975        1.9359501417       -0.5552515933
 C          1.6927938967        2.3234831755       -0.6931461355
 C          2.1238867114        3.5733202954       -0.2633976510
 N          3.4744140901        3.9208024710       -0.3758899905
 C          4.5421147985        3.1242331218       -0.0049373102
 C          4.5507001838        1.8693731508        0.5879245092
 C          5.7749458468        1.2932602776        0.8679013726
 C          6.9694408224        1.9521543670        0.5859042092
 C          6.9684342575        3.2140669962        0.0264966441
 C          5.7495980611        3.8089853714       -0.2718253160
 C          5.3842027696        5.0774242678       -0.8373936955
 C          6.1177443864        6.1569525431       -1.3111164371
 C          5.4393131052        7.2399145530       -1.8331116490
 C          4.0481111620        7.2465500831       -1.9024784134
 C          3.2967698025        6.1843209173       -1.4372468431
 C          3.9715012172        5.1050917706       -0.8847392343
 C          1.2015266238        4.4604323018        0.2860417738
 C         -0.1231123902        4.0883791699        0.4012202727
 C         -0.5574411239        2.8273910564        0.0051653274
 C         -1.9597684448        2.4283403181        0.2025815166
 C         -2.9998788000        3.2264882502       -0.2641920694
 C         -4.3130285287        2.8139018924       -0.1496378499
 C         -4.6100307102        1.5970661726        0.4566304477
 N         -5.9310554365        1.1388999664        0.5286608697
 C         -7.0219340509        1.8459222019        0.9918057862
 C         -7.0825266129        3.1207095455        1.5360950362
 C         -8.3149920240        3.5858535479        1.9527921823
 C         -9.4630331305        2.8044309972        1.8418790839
 C         -9.4050465888        1.5268615940        1.3219454233
 C         -8.1777607565        1.0369100493        0.8956180928
 C         -7.7535407629       -0.2166550466        0.3374757993
 C         -8.4206635024       -1.3849688685       -0.0070908705
 C         -7.6960603974       -2.4219344027       -0.5595298285
 C         -6.3263144851       -2.2998422837       -0.7834508824
 C         -5.6398524910       -1.1483563760       -0.4490388646
 C         -6.3592550424       -0.1120429290        0.1292413425
 C         -3.5775196470        0.8208026023        0.9775087512
 C         -2.2682927164        1.2310686743        0.8453291824
 C          0.7192199488       -0.5057863097       -0.5904539177
 N          2.1734596063       -2.6623590473        0.3243248626
 C          4.8696105629       -4.4951329947        1.9906955099
 C          5.9069893352       -4.2587401113        2.8718428756
 H          6.8929497670       -2.8150030406        4.1084628065
 H          5.3559986366       -0.9843189511        3.5082932421
 H          3.5033415934       -1.4044404274        1.9152791115
 H         -0.2870145147       -5.8735780425       -2.1903312011
 H         -0.7949433781       -8.1719669027       -2.9675341113
 H          0.5719920644      -10.0634418062       -2.1740758958
 H          2.4370269759       -9.6702594083       -0.6111999353
 H          2.9331814870       -7.3676074553        0.1609667694
 H         -1.0071614576       -2.9960355379       -2.0838602480
 H         -2.3302778900       -1.0486869585       -2.8696482367
 H         -1.6968955812        1.2254807721       -2.1885034099
 H          2.3946966018        1.6520544219       -1.1648109740
 H          3.6324021971        1.3587225648        0.8342081995
 H          5.8062101635        0.3094469179        1.3123145966
 H          7.9063126575        1.4675805363        0.8175790310
 H          7.8932078778        3.7327691553       -0.1767121708
 H          7.1966323986        6.1424742469       -1.2744769449
 H          5.9903630922        8.0910457693       -2.2046233054
 H          3.5449662506        8.0994241400       -2.3339446632
 H          2.2202575285        6.1921708661       -1.5169865341
 H          1.5302346444        5.4250544005        0.6413746320
 H         -0.8331856887        4.7722023249        0.8433290521
 H         -2.7726962507        4.1601794962       -0.7583669568
 H         -5.1118529744        3.4174405933       -0.5540373771
 H         -6.1951640436        3.7264295169        1.6427872987
 H         -8.3894262404        4.5761361380        2.3777035931
 H        -10.4080107883        3.2050753474        2.1774966684
 H        -10.2920758755        0.9156196399        1.2503597830
 H         -9.4847922308       -1.4738429169        0.1518127634
 H         -8.1951738082       -3.3401067887       -0.8317006442
 H         -5.7888026986       -3.1230308003       -1.2307229383
 H         -4.5808033156       -1.0575792306       -0.6407836242
 H         -3.8111234679       -0.1020887430        1.4865652102
 H         -1.4734893622        0.6234200864        1.2512281803
 H          1.5737007723       -0.3761631010        0.0553628319
 H          4.7157659420       -5.4713887101        1.5586971772
 H          6.5808713694       -5.0596979722        3.1386967957
  99
  -155.629796960000       0.200737483854295      !
 C          6.1234632384       -2.9441826624        3.4378723737
 C          5.1949108839       -1.9538691201        3.1566158438
 C          4.1664276797       -2.2014017448        2.2682022950
 C          4.0552740147       -3.4501208856        1.6594822707
 C          2.9634207109       -3.7154136802        0.7222653214
 N          2.7943007637       -4.9610337071        0.2891556971
 C          1.7820327163       -5.1544818452       -0.5517081814
 C          1.5535876400       -6.5107202853       -1.0496969043
 C          0.5592200704       -6.7515756616       -1.9959723442
 C          0.3498954427       -8.0328082666       -2.4674789730
 C          1.1268677010       -9.0816327680       -1.9999512230
 C          2.1161462864       -8.8473277110       -1.0573928266
 C          2.3316833202       -7.5682856693       -0.5827467941
 N          0.9679207866       -4.1891053620       -0.9716804002
 C          1.2192850050       -2.9727119843       -0.5002029387
 C          0.3792648835       -1.8627622142       -0.9515964872
 C         -0.7291784630       -2.0831355895       -1.7651883322
 C         -1.4867785148       -1.0085861570       -2.1930930103
 C         -1.1556984848        0.2811632289       -1.8142622100
 C         -0.0576334650        0.5137324292       -0.9879542272
 C          0.3269955222        1.8703889101       -0.5594872803
 C          1.6549323030        2.2533746575       -0.6918647915
 C          2.0848261022        3.5111366796       -0.2858847721
 N          3.4375354693        3.8531551782       -0.3884369047
 C          4.4984825512        3.0694197221        0.0270111570
 C          4.4974400301        1.8261293654        0.6437339269
 C          5.7164601548        1.2630745980        0.9695332668
 C          6.9147731821        1.9239018050        0.7093348817
 C          6.9227065624        3.1740017018        0.1240181450
 C          5.7095676173        3.7550006543       -0.2211943191
 C          5.3539471754        5.0095007536       -0.8229365375
 C          6.0950386978        6.0820948211       -1.3005266584
 C          5.4258092328        7.1502158744       -1.8634939725
 C          4.0369497963        7.1485419592       -1.9695654964
 C          3.2782089758        6.0929211747       -1.5012364809
 C          3.9429228364        5.0292328932       -0.9079830235
 C          1.1584194183        4.4128565513        0.2322281336
 C         -0.1678792041        4.0459771860        0.3404000633
 C         -0.6018118958        2.7768547952       -0.0310842588
 C         -2.0095233443        2.3958334985        0.1637283997
 C         -3.0348884805        3.2016411700       -0.3230249817
 C         -4.3557449626        2.8207083460       -0.1928385998
 C         -4.6770360164        1.6293017325        0.4508391401
 N         -6.0100597810        1.2130976114        0.5514528901
 C         -7.0735964930        1.9750474538        0.9917503696
 C         -7.0862770790        3.2680237076        1.4951261410
 C         -8.3001791639        3.7919673635        1.8960242458
 C         -9.4768286575        3.0508555975        1.8101359915
 C         -9.4667381246        1.7556404305        1.3326823090
 C         -8.2587608285        1.2069750329        0.9228085640
 C         -7.8822247088       -0.0791540392        0.4061787152
 C         -8.5938999720       -1.2316823523        0.0999923925
 C         -7.9101319424       -2.3128947029       -0.4187680621
 C         -6.5370961288       -2.2502043989       -0.6467099957
 C         -5.8069899290       -1.1151343229       -0.3505559092
 C         -6.4853427085       -0.0335227379        0.1934738098
 C         -3.6584110930        0.8422644364        0.9828645088
 C         -2.3407275786        1.2198931574        0.8336732689
 C          0.7060873007       -0.5665260726       -0.5687897982
 N          2.1997531267       -2.6917077337        0.3532637771
 C          4.9879275688       -4.4435539880        1.9495593293
 C          6.0185226500       -4.1871519755        2.8330417651
 H          6.9286200575       -2.7472669616        4.1306610556
 H          5.2744886422       -0.9887505582        3.6361121781
 H          3.4350175971       -1.4428072704        2.0370073196
 H         -0.0340012542       -5.9227007761       -2.3488445435
 H         -0.4204506914       -8.2182035922       -3.2015233545
 H          0.9615027094      -10.0826247920       -2.3711218320
 H          2.7201600996       -9.6660198524       -0.6947214488
 H          3.0954787560       -7.3667206946        0.1519682706
 H         -0.9769770724       -3.0930207161       -2.0508205391
 H         -2.3421472103       -1.1731054885       -2.8321486471
 H         -1.7433001415        1.1150041828       -2.1691523664
 H          2.3605092358        1.5707705076       -1.1413560559
 H          3.5757052659        1.3143482805        0.8741394900
 H          5.7404011945        0.2879881437        1.4331788599
 H          7.8473790589        1.4502026855        0.9779556123
 H          7.8499595815        3.6942559743       -0.0633653422
 H          7.1726181558        6.0737405002       -1.2353455630
 H          5.9828618942        7.9957996786       -2.2386774255
 H          3.5416396460        7.9895030891       -2.4323177871
 H          2.2040150718        6.0938509029       -1.6086473748
 H          1.4853307681        5.3848031006        0.5687844335
 H         -0.8812069051        4.7412605401        0.7587399422
 H         -2.7900502298        4.1170354664       -0.8423883752
 H         -5.1429127961        3.4305360975       -0.6105611646
 H         -6.1770405928        3.8436040820        1.5828221554
 H         -8.3375003674        4.7975358611        2.2887971644
 H        -10.4059671357        3.4974763556        2.1315727668
 H        -10.3757672404        1.1754839641        1.2811647908
 H         -9.6604420535       -1.2745295065        0.2617939780
 H         -8.4442102975       -3.2196184392       -0.6608601962
 H         -6.0317438030       -3.1075193073       -1.0664543644
 H         -4.7457808586       -1.0709996558       -0.5463656722
 H         -3.9089117965       -0.0615651378        1.5174870172
 H         -1.5571994576        0.6043988226        1.2497899422
 H          1.5605720153       -0.4202030946        0.0734260438
 H          4.8903688101       -5.4045121669        1.4694860638
 H          6.7432160771       -4.9571769526        3.0539964840
