  51
        -72.37281210
 C          5.0706064499        0.2168984995       -0.0558584426
 C          3.7270355146        0.7633752143        0.2977146254
 C          3.6326886845        2.0293294291        0.9404593548
 C          2.4166265222        2.5429514016        1.2753351505
 C          1.2321727010        1.8274723740        0.9939186530
 C          1.3087150351        0.5480439024        0.3402856531
 C          2.5581518240        0.0679811380        0.0094356425
 C          0.0459551227       -0.1816758685       -0.0280930492
 C         -0.2793510447        0.0446470193       -1.5046330239
 C         -1.0358453676       -0.8825567653       -2.2281229690
 C         -1.3597697355       -0.6501970688       -3.5488591911
 C         -0.9559490503        0.5161646569       -4.1811875903
 C         -0.2170566757        1.4497573968       -3.4657818447
 C          0.1163696386        1.2190622512       -2.1477674815
 C          0.2501319286       -1.6353855850        0.3513871972
 C          0.7880071713       -2.5637536562       -0.5363782121
 C          1.0021295089       -3.8721235553       -0.1396415529
 C          0.6944912765       -4.2731121934        1.1484673444
 C          0.1773013104       -3.3489138556        2.0445754956
 C         -0.0401785384       -2.0433127932        1.6488546696
 C         -1.1941034141        0.3978153202        0.5897763568
 C         -2.4175403109       -0.2568590297        0.5603300773
 C         -3.5847744547        0.3291947139        1.0050340543
 C         -4.8883505780       -0.3969493738        0.9868588671
 C         -3.5460449398        1.6736202460        1.5031926379
 C         -2.3610815428        2.3432943475        1.5727117016
 C         -1.1666312443        1.7334087598        1.1515923053
 N          0.0251827612        2.3530232784        1.3201700567
 H          5.6992316463        0.1408019223        0.8326233691
 H          4.9841754082       -0.7684512468       -0.5065563126
 H          5.5801489522        0.8784188833       -0.7588731126
 H          4.5377987468        2.5754756208        1.1576234669
 H          2.3352410802        3.5060676865        1.7615126528
 H          2.6366169126       -0.8863198088       -0.4880137605
 H         -1.3682004319       -1.7942363200       -1.7571233772
 H         -1.9376516098       -1.3848756665       -4.0918382630
 H         -1.2135329170        0.6968964172       -5.2137154437
 H          0.1056883385        2.3629286208       -3.9452465293
 H          0.7034387302        1.9526663589       -1.6159366877
 H          1.0325954988       -2.2662098314       -1.5453020685
 H          1.4134563682       -4.5824254893       -0.8428561358
 H          0.8590389272       -5.2953866767        1.4550113093
 H         -0.0568246269       -3.6492679008        3.0555549180
 H         -0.4431522611       -1.3282095142        2.3514789751
 H         -2.4546968036       -1.2676002395        0.1831037475
 H         -5.6158461119        0.1442473262        0.3802048707
 H         -4.7724435841       -1.3988029136        0.5813531305
 H         -5.2987328010       -0.4728117873        1.9951447729
 H         -4.4635712952        2.1371064904        1.8290009874
 H         -2.3172418734        3.3510095846        1.9651810479
 H          0.0178398622        3.2709252049        1.7500215972
  51
        -72.37275787
 C          4.9219260634        0.5987803294       -0.6911595962
 C          3.6365941273        0.8909966549        0.0084089328
 C          3.6447579822        1.7700908007        1.1402665180
 C          2.4795704488        2.0801301611        1.7743144779
 C          1.2570598530        1.5389673296        1.3355003162
 C          1.2349838129        0.6100504973        0.2251959039
 C          2.4392625940        0.3403028260       -0.4056623021
 C         -0.0410828333       -0.0867997419       -0.1531503509
 C         -0.2949418572       -0.0213666655       -1.6481826784
 C          0.0190193444        1.1471914199       -2.3350003599
 C         -0.2429262799        1.2661738707       -3.6856626364
 C         -0.8271791547        0.2156820582       -4.3791317901
 C         -1.1567759411       -0.9447824935       -3.7013316988
 C         -0.9005020224       -1.0633770923       -2.3467749854
 C          0.2368435519       -1.4885825859        0.3851276269
 C         -0.1065482567       -1.8162648000        1.6972836709
 C          0.1864756848       -3.0603660359        2.2153795761
 C          0.8302589294       -4.0142242850        1.4373418871
 C          1.1830674863       -3.6950667906        0.1356416765
 C          0.9007003066       -2.4476818938       -0.3842234436
 C         -1.2684109333        0.4860423019        0.5016495244
 C         -2.5374298525        0.0459188096        0.1880496079
 C         -3.6768099782        0.5455019884        0.8066140789
 C         -5.0416988880        0.0630423854        0.4425096842
 C         -3.5320801483        1.5424162357        1.8139509596
 C         -2.2958788594        1.9944759437        2.1617527031
 C         -1.1402545046        1.4873623017        1.5282522332
 N          0.0883476545        1.9225676713        1.9011588039
 H          5.3522841508        1.5141697755       -1.1003089504
 H          5.6486535791        0.1827047885        0.0073676379
 H          4.7732579317       -0.1084706611       -1.5028488318
 H          4.5826646010        2.1855001032        1.4731337412
 H          2.4722299067        2.7564507245        2.6191817261
 H          2.4403262949       -0.3229597873       -1.2571695630
 H          0.4755220192        1.9688986588       -1.8021220306
 H          0.0087231360        2.1809732644       -4.2023548402
 H         -1.0249087388        0.3044714845       -5.4369693542
 H         -1.6189390133       -1.7662791689       -4.2303265297
 H         -1.1645549965       -1.9765858650       -1.8346575276
 H         -0.6167123179       -1.0922381863        2.3153355145
 H         -0.0922880653       -3.2939123722        3.2329896228
 H          1.0546161563       -4.9894356731        1.8421281679
 H          1.6881732378       -4.4256696843       -0.4805210107
 H          1.1936770977       -2.2218268806       -1.3975573049
 H         -2.6541521093       -0.7124673237       -0.5705292749
 H         -4.9934480558       -0.6899964858       -0.3394556872
 H         -5.5400574022       -0.3679900132        1.3119707794
 H         -5.6593901635        0.8908506818        0.0917797068
 H         -4.4155199635        1.9311560152        2.2965028755
 H         -2.1753717842        2.7475066392        2.9294185688
 H          0.1337784150        2.6040386716        2.6501621926
  51
        -72.37269018
 C          5.0698708478        0.1987048742       -0.0321318909
 C          3.7294282935        0.7674071043        0.3001256665
 C          3.6327597143        2.0336510337        0.9368322380
 C          2.4156705551        2.5483476216        1.2683692104
 C          1.2317290000        1.8297240684        0.9904327337
 C          1.3110598714        0.5472777336        0.3456914618
 C          2.5599140231        0.0672283006        0.0171688192
 C          0.0494064883       -0.1851942790       -0.0218223756
 C         -0.2802427271        0.0455392649       -1.4967086291
 C          0.1138069669        1.2216606050       -2.1384419856
 C         -0.2251309057        1.4561712684       -3.4541057271
 C         -0.9679772531        0.5254033575       -4.1690350621
 C         -1.3703037544       -0.6422582644       -3.5378481773
 C         -1.0412383927       -0.8788812024       -2.2194102600
 C          0.2541921034       -1.6403929077        0.3520527309
 C         -0.0381401986       -2.0551097815        1.6461644159
 C          0.1805230513       -3.3628058387        2.0356902119
 C          0.7016047543       -4.2810250429        1.1361350872
 C          1.0107686054       -3.8731117249       -0.1492616604
 C          0.7937783428       -2.5636259452       -0.5400646468
 C         -1.1913163511        0.3944525504        0.5945746588
 C         -2.4138333806       -0.2630428500        0.5728575772
 C         -3.5828945443        0.3290807174        1.0030149988
 C         -4.8847590755       -0.4000861898        0.9981977732
 C         -3.5486049839        1.6834111959        1.4755496016
 C         -2.3647020125        2.3552501254        1.5405034307
 C         -1.1674091352        1.7389310022        1.1380177756
 N          0.0235635653        2.3589722532        1.3073401837
 H          5.5119289981       -0.2710231027        0.8503808180
 H          4.9883126645       -0.5573894394       -0.8102771573
 H          5.7506128041        0.9811160716       -0.3654091432
 H          4.5354356802        2.5846530653        1.1507458607
 H          2.3340450539        3.5148508586        1.7473663251
 H          2.6406723982       -0.8901494713       -0.4738218717
 H          0.7032824739        1.9533467080       -1.6065258663
 H          0.0955996510        2.3706794771       -3.9323303200
 H         -1.2299001090        0.7099743744       -5.1998447462
 H         -1.9516228140       -1.3748851768       -4.0796007055
 H         -1.3728765072       -1.7913987981       -1.7493933625
 H         -0.4440774020       -1.3447860663        2.3519452528
 H         -0.0566622005       -3.6685922502        3.0441262416
 H          0.8681299194       -5.3045226229        1.4374375934
 H          1.4255646412       -4.5796924446       -0.8542042974
 H          1.0390335013       -2.2595914405       -1.5468425380
 H         -2.4483236491       -1.2796885813        0.2116034719
 H         -4.7655517127       -1.4117745944        0.6189059612
 H         -5.2980623012       -0.4504229035        2.0067807502
 H         -5.6118747590        0.1232828165        0.3754222829
 H         -4.4696220347        2.1511299551        1.7856478508
 H         -2.3235408122        3.3699154434        1.9153650007
 H          0.0146811170        3.2817639898        1.7266157467
  51
        -72.37263456
 C          4.9312124818        0.8155892125       -0.6444060358
 C          3.6083686195        1.1360291250       -0.0321766208
 C          3.5106429928        2.2147535097        0.8975732654
 C          2.3165753253        2.5150891023        1.4778439170
 C          1.1584841373        1.7698197388        1.1685864475
 C          1.2337980803        0.6911347983        0.2146002415
 C          2.4663327273        0.4107339993       -0.3404057273
 C          0.0077924770       -0.1097147263       -0.1300552805
 C         -0.1243028480        0.0187947978       -1.6396238163
 C         -0.8195896353        1.1031486146       -2.1687157663
 C         -0.9171657153        1.2841877217       -3.5335527470
 C         -0.3188279235        0.3828584801       -4.4036910261
 C          0.3850018996       -0.6910916315       -3.8871427414
 C          0.4886576118       -0.8716039872       -2.5197267297
 C          0.1511148730       -1.5391051256        0.3807518732
 C         -0.4616296532       -2.6172229004       -0.2596757594
 C         -0.3544660789       -3.8947551683        0.2557990139
 C          0.3513293028       -4.1268015851        1.4245958399
 C          0.9500417983       -3.0570604813        2.0772430349
 C          0.8506370313       -1.7812138055        1.5620624585
 C         -1.2433810820        0.3573476978        0.5602508345
 C         -2.4798291148       -0.2009749229        0.2901838143
 C         -3.6315160530        0.1745594426        0.9598848742
 C         -4.9566920623       -0.4379514028        0.6507846071
 C         -3.5469306541        1.1788060937        1.9759510211
 C         -2.3524674503        1.7675649271        2.2591596684
 C         -1.1843219186        1.3956725167        1.5639135626
 N         -0.0142396138        2.0380506414        1.7918668734
 H          5.3107645927        1.6715789087       -1.2046425020
 H          5.6648989887        0.5827090576        0.1289940415
 H          4.8538184365       -0.0337561352       -1.3182350404
 H          4.3966063122        2.7830781689        1.1345390405
 H          2.2337010872        3.3257625117        2.1898107581
 H          2.5474412775       -0.4048489907       -1.0419788825
 H         -1.2906906459        1.8093935548       -1.5003101825
 H         -1.4623135638        2.1312780791       -3.9240477672
 H         -0.3988330398        0.5208016559       -5.4715473495
 H          0.8610866731       -1.3954620483       -4.5547581511
 H          1.0423444531       -1.7164293667       -2.1388145784
 H         -1.0189382457       -2.4619897230       -1.1705358029
 H         -0.8294191899       -4.7177670672       -0.2594916619
 H          0.4332734713       -5.1259914681        1.8251081494
 H          1.5001900139       -3.2229763264        2.9923445889
 H          1.3270509168       -0.9606308157        2.0783854812
 H         -2.5510422833       -0.9576282121       -0.4758501449
 H         -5.6664735744        0.3259066616        0.3277767341
 H         -4.8679004951       -1.1853299375       -0.1337965228
 H         -5.3735502420       -0.9131022506        1.5405671041
 H         -4.4422631301        1.4631070797        2.5060874253
 H         -2.2792979490        2.5365525403        3.0171996348
 H         -0.0174222734        2.7840194760        2.4782784552
  51
        -72.37259850
 C          4.9725245837        0.5256402388       -0.2014157149
 C          3.5985387783        1.0048635272        0.1290325767
 C          3.4318678541        2.3377674135        0.6344392358
 C          2.1948636813        2.7829211293        0.9930987259
 C          1.0684877102        1.9518562510        0.8648788713
 C          1.2066081528        0.6251086835        0.2948284035
 C          2.4879615912        0.2020766414       -0.0305918766
 C         -0.0174282290       -0.1848132301       -0.0223709290
 C         -0.0984519709        0.0626487066       -1.5284074893
 C         -0.8484232510        1.1250530926       -2.0368262106
 C         -0.8842541915        1.3795596890       -3.3918191419
 C         -0.1721111282        0.5832942165       -4.2792778417
 C          0.5823041451       -0.4698722226       -3.7829481322
 C          0.6278559731       -0.7242477274       -2.4281968343
 C          0.1400365168       -1.6433612941        0.3607671689
 C         -0.4177378820       -2.6702295789       -0.3966675583
 C         -0.2968253072       -3.9876037582        0.0089309682
 C          0.3721236817       -4.3016188566        1.1789510098
 C          0.9144457911       -3.2826468371        1.9482781236
 C          0.7970982422       -1.9670376280        1.5428666751
 C         -1.2672867040        0.3114464627        0.6538571878
 C         -2.4471450644       -0.3971441392        0.6246212728
 C         -3.6206958850        0.0757501325        1.2091950406
 C         -4.8666545253       -0.7475995504        1.1941131070
 C         -3.6052889154        1.3448055355        1.8443866947
 C         -2.4613364611        2.0840475949        1.8825310704
 C         -1.2703383292        1.5956432472        1.2989350191
 N         -0.1401656275        2.3450712335        1.3301810859
 H          4.9474112246       -0.4763036030       -0.6214165043
 H          5.4464060412        1.1955892949       -0.9191211677
 H          5.5982083142        0.5131911218        0.6923674513
 H          4.2989322455        2.9709146374        0.7344961762
 H          2.0603730173        3.7785629110        1.3956072087
 H          2.6205741205       -0.7968428843       -0.4180322986
 H         -1.4207131077        1.7496281131       -1.3672654303
 H         -1.4768721758        2.2032929008       -3.7636677731
 H         -0.2032896289        0.7816353047       -5.3398452045
 H          1.1442265867       -1.0964071417       -4.4612641163
 H          1.2269977945       -1.5448760375       -2.0658997111
 H         -0.9421316025       -2.4408697257       -1.3124948051
 H         -0.7300167818       -4.7735678063       -0.5934115943
 H          0.4681306842       -5.3305032103        1.4924625523
 H          1.4303918281       -3.5161356381        2.8683476108
 H          1.2209146905       -1.1775041070        2.1466889962
 H         -2.4707246482       -1.3591115162        0.1363738247
 H         -4.9364379610       -1.3290529427        0.2759065091
 H         -4.8677852411       -1.4501977804        2.0316726385
 H         -5.7504141448       -0.1187050919        1.2846797236
 H         -4.5122521889        1.7189601891        2.2943872793
 H         -2.4431724136        3.0551151388        2.3589849603
 H         -0.1997031023        3.2595902092        1.7631391407
  51
        -72.37250324
 C          4.8914010780        0.7011135350       -0.7642555285
 C          3.6168329970        0.9295290819       -0.0227397798
 C          3.6446473178        1.7139467466        1.1792116268
 C          2.4893171003        1.9680019398        1.8559732603
 C          1.2614734912        1.4633806957        1.3944709340
 C          1.2205636325        0.6203944650        0.2140185074
 C          2.4167995983        0.4058476972       -0.4569262588
 C         -0.0564185870       -0.0710270018       -0.1687130804
 C         -0.3044421750       -0.0364778540       -1.6638442350
 C         -0.0082537798        1.1236879274       -2.3707617314
 C         -0.2696983242        1.2123362359       -3.7244204003
 C         -0.8364251567        0.1397272351       -4.3974955478
 C         -1.1487445587       -1.0128676224       -3.6990006884
 C         -0.8916994527       -1.1011222647       -2.3418574183
 C          0.2400612793       -1.4623379323        0.3904309348
 C         -0.1342844600       -1.8024640372        1.6922394737
 C          0.1829807060       -3.0367832410        2.2189150962
 C          0.8846597452       -3.9679931082        1.4642266815
 C          1.2654216828       -3.6376214869        0.1717336912
 C          0.9569039618       -2.4020779199       -0.3577232112
 C         -1.2805386981        0.5048988850        0.4922613247
 C         -2.5532810613        0.1379140453        0.1233107976
 C         -3.6919965533        0.6309331955        0.7633109759
 C         -5.0517387370        0.2207004239        0.3000963018
 C         -3.5305125350        1.5235028540        1.8516480704
 C         -2.2855096580        1.9037479746        2.2556961569
 C         -1.1353127738        1.4185468100        1.5909413480
 N          0.0996046700        1.8044769332        1.9987371878
 H          5.3644470958        1.6537597061       -1.0176806412
 H          5.5962315071        0.1421885993       -0.1416032858
 H          4.7153899370        0.1397824669       -1.6810116136
 H          4.5877016828        2.1036639246        1.5274192278
 H          2.4949336635        2.5747370994        2.7521513068
 H          2.4048677098       -0.1841934153       -1.3608918277
 H          0.4320630996        1.9623300831       -1.8508275043
 H         -0.0329411478        2.1208355648       -4.2586380958
 H         -1.0355300444        0.2059692676       -5.4567521855
 H         -1.5962476722       -1.8517080086       -4.2128222416
 H         -1.1389637728       -2.0081172107       -1.8103847193
 H         -0.6915917101       -1.1000669871        2.2937505212
 H         -0.1224151059       -3.2808928600        3.2265044937
 H          1.1313021379       -4.9338502870        1.8781445767
 H          1.8134995600       -4.3512469883       -0.4272300139
 H          1.2703543168       -2.1663668771       -1.3625050418
 H         -2.6868580960       -0.5523140618       -0.6953782818
 H         -5.8266644025        0.6766064270        0.9110489183
 H         -5.2078430701        0.5183526347       -0.7379033373
 H         -5.1635372839       -0.8631839507        0.3473848790
 H         -4.4057181546        1.9003457200        2.3589053207
 H         -2.1543738926        2.5832539782        3.0870215848
 H          0.1522362541        2.4247753637        2.7986172549
  51
        -72.37244221
 C          4.9774389050        0.6042223133       -0.3497741086
 C          3.6140401725        1.0424715866        0.0696300807
 C          3.4547479671        2.3291636803        0.6801811228
 C          2.2276881441        2.7354262222        1.1098577416
 C          1.0998869404        1.9093979267        0.9465720789
 C          1.2294578918        0.6341406578        0.2723732904
 C          2.5014788033        0.2430642780       -0.1129572615
 C          0.0050147839       -0.1701205883       -0.0609891719
 C         -0.0993836140        0.0582195207       -1.5662172019
 C         -0.8731234933        1.1078633634       -2.0627437334
 C         -0.9428428271        1.3569027922       -3.4176021506
 C         -0.2401382727        0.5653130806       -4.3163505084
 C          0.5416076064       -0.4719057094       -3.8321232381
 C          0.6198183451       -0.7202914404       -2.4763348985
 C          0.1516333607       -1.6209911003        0.3614235050
 C         -0.3516411825       -2.6771074405       -0.3940036357
 C         -0.2582889022       -3.9777300272        0.0701638462
 C          0.3177971745       -4.2452402385        1.2991845508
 C          0.8040380612       -3.1953231786        2.0665481603
 C          0.7232851553       -1.8986543238        1.5996050445
 C         -1.2454371464        0.3091660324        0.6243957937
 C         -2.4401648906       -0.3706747866        0.5108423909
 C         -3.6075731561        0.0639650990        1.1256672375
 C         -4.8896830932       -0.6888448078        0.9939869670
 C         -3.5733693591        1.2613542714        1.8972054834
 C         -2.4174960600        1.9705633453        2.0189334616
 C         -1.2336699790        1.5283607751        1.3886085989
 N         -0.0972758936        2.2629507630        1.4714625859
 H          5.6323952670        0.5055418992        0.5179520518
 H          4.9400037965       -0.3517203054       -0.8658708407
 H          5.4271023367        1.3441637413       -1.0129807100
 H          4.3203472185        2.9608840159        0.8018291117
 H          2.0997780243        3.6958195996        1.5921731468
 H          2.6294585044       -0.7244477982       -0.5738557864
 H         -1.4346368248        1.7293107058       -1.3810009604
 H         -1.5540064510        2.1713616873       -3.7795345930
 H         -0.3002274059        0.7568156254       -5.3770103195
 H          1.0987379322       -1.0927487317       -4.5195965464
 H          1.2386196704       -1.5312933598       -2.1256861160
 H         -0.8176878647       -2.4861687045       -1.3490362483
 H         -0.6462591054       -4.7871698679       -0.5321133658
 H          0.3833339462       -5.2603609559        1.6615084936
 H          1.2448388530       -3.3917332438        3.0332182158
 H          1.1049869198       -1.0854521435        2.2006617204
 H         -2.4691285149       -1.2772865107       -0.0741524454
 H         -5.6489444149       -0.0695081791        0.5133456060
 H         -4.7526089856       -1.5908846687        0.4032343788
 H         -5.2728433616       -0.9689372897        1.9761760782
 H         -4.4775238838        1.5978646975        2.3807318369
 H         -2.3846133345        2.8845855464        2.5969901272
 H         -0.1428184797        3.1376694709        1.9816949336
  51
        -72.37218409
 C          4.9821770491        0.4084563729       -0.5043576831
 C          3.6752971733        0.8292177591        0.0807032754
 C          3.6494064664        1.8824492830        1.0492842919
 C          2.4682157588        2.2829049144        1.5938584166
 C          1.2565746103        1.6662136255        1.2189963258
 C          1.2660413993        0.5817130969        0.2623846037
 C          2.4847852257        0.2186911113       -0.2788644815
 C         -0.0095654164       -0.1232714865       -0.1080969315
 C         -0.2854338648        0.0095652067       -1.5993640580
 C         -0.9405969776       -0.9849367124       -2.3247389568
 C         -1.2158044657       -0.8092668246       -3.6682892055
 C         -0.8572972510        0.3621668499       -4.3130046309
 C         -0.2211239671        1.3647948303       -3.5934791532
 C          0.0605693851        1.1893269445       -2.2537925717
 C          0.2268467508       -1.5504435144        0.3693342244
 C          0.8317379756       -2.5108898511       -0.4418972121
 C          1.0767655427       -3.7837728373        0.0382675195
 C          0.7359808501       -4.1249023886        1.3356043956
 C          0.1502695597       -3.1691273585        2.1559424294
 C         -0.0992463562       -1.8989507894        1.6785386040
 C         -1.2391002086        0.4530649504        0.5418907818
 C         -2.4899158343       -0.0843435073        0.3329132352
 C         -3.6423902530        0.4481379071        0.9040434372
 C         -4.9740284788       -0.1730313139        0.6361718851
 C         -3.5278772054        1.5960732725        1.7375620670
 C         -2.3081850440        2.1498179089        1.9824441510
 C         -1.1390219817        1.5978489483        1.4117834395
 N          0.0771877688        2.1142002456        1.7100510326
 H          4.8376850307       -0.3217039011       -1.2969067052
 H          5.5182153320        1.2681812210       -0.9093189482
 H          5.6164172590       -0.0370138276        0.2653789466
 H          4.5765497198        2.3544816447        1.3339362258
 H          2.4357581376        3.0855079315        2.3191300637
 H          2.5121103370       -0.5725928076       -1.0118412168
 H         -1.2307581503       -1.9060469053       -1.8430434462
 H         -1.7174535309       -1.5948066987       -4.2158841674
 H         -1.0722836892        0.4962712050       -5.3625309208
 H          0.0579913363        2.2866783270       -4.0830170153
 H          0.5599443110        1.9751339759       -1.7056913083
 H          1.1056349971       -2.2696119401       -1.4572478256
 H          1.5393958831       -4.5161296472       -0.6084225063
 H          0.9260388369       -5.1204295800        1.7073998624
 H         -0.1143228941       -3.4204167568        3.1728013201
 H         -0.5573932072       -1.1659291328        2.3266356586
 H         -2.5881039004       -0.9543922328       -0.2974738747
 H         -4.9646967323       -1.2315913689        0.8981573397
 H         -5.7572953548        0.3198440538        1.2064918178
 H         -5.2220046416       -0.1029349523       -0.4242871907
 H         -4.4184971295        2.0194753867        2.1759483567
 H         -2.2103186882        3.0172610075        2.6216071218
 H          0.1066690920        2.8987656265        2.3513234725
