  51
  -72.0491906843000       0.231317500363273      !
 C          4.8739372591       -0.4435811636        1.0444319183
 C          3.5808792414        0.3010684769        1.0307973050
 C          3.5571222168        1.6579763016        1.4977926124
 C          2.3806096689        2.3439588170        1.5449518890
 C          1.1810806100        1.7400105749        1.1299717100
 C          1.1948041004        0.3923604352        0.5933669512
 C          2.4095608662       -0.2792597735        0.5897068105
 C         -0.0469283388       -0.1787201297       -0.0285828255
 C          0.2942585851        0.0271540653       -1.5041016077
 C         -0.0868239124        1.1951733641       -2.1675446302
 C          0.2615319404        1.4045561450       -3.4854484047
 C          1.0013785735        0.4562902565       -4.1798460958
 C          1.3914455269       -0.7039390763       -3.5268830029
 C          1.0524064299       -0.9150630845       -2.2068026684
 C         -0.2746582743       -1.6262085889        0.3611204464
 C         -0.8175678002       -2.5529756550       -0.5252373663
 C         -1.0581274673       -3.8542093315       -0.1208530078
 C         -0.7713061339       -4.2496279892        1.1739144375
 C         -0.2475268911       -3.3272337690        2.0678527253
 C         -0.0039700915       -2.0284074607        1.6645082237
 C         -1.3037691150        0.5708957294        0.3237404397
 C         -2.5546415651        0.1007631359       -0.0068871280
 C         -3.7210248792        0.8096613335        0.2752304371
 C         -5.0604270423        0.2401133831       -0.0596756334
 C         -3.6161501121        2.0735893648        0.9121720694
 C         -2.3956169310        2.5809725821        1.2429621209
 C         -1.2159148450        1.8535539640        0.9658974165
 N         -0.0047958773        2.3733270871        1.2867333647
 H          4.7588116580       -1.4361633291        0.6172907862
 H          5.6303991977        0.0978589737        0.4760091850
 H          5.2460905090       -0.5445212123        2.0651162595
 H          4.4788858897        2.1164663177        1.8184576926
 H          2.3472346247        3.3603130125        1.9155104276
 H          2.4368131071       -1.2979454271        0.2332334781
 H         -0.6736317162        1.9406745970       -1.6519810668
 H         -0.0500021253        2.3130860547       -3.9809520001
 H          1.2708970607        0.6199289448       -5.2121719077
 H          1.9701784987       -1.4496819762       -4.0535243269
 H          1.3730861110       -1.8221288257       -1.7188915759
 H         -1.0460039354       -2.2594345097       -1.5391332142
 H         -1.4740714377       -4.5631410916       -0.8227199995
 H         -0.9568897235       -5.2663211682        1.4869696343
 H         -0.0289575042       -3.6230597841        3.0837068420
 H          0.4033996455       -1.3141278393        2.3655356683
 H         -2.6437794316       -0.8552738529       -0.4991985320
 H         -5.0139227068       -0.3487893849       -0.9746029575
 H         -5.4037085119       -0.4197087879        0.7415384799
 H         -5.7999147148        1.0293594709       -0.1821101559
 H         -4.5154509933        2.6299086026        1.1286009058
 H         -2.3069575571        3.5465626231        1.7226347225
 H          0.0097825021        3.2968160078        1.7042235192
  51
  -72.0489852415000       0.186120202705527      !
 C          4.9291687846       -0.3770356908        0.9074490423
 C          3.6170509704        0.3299730965        0.9802763685
 C          3.5664390576        1.6443995248        1.5489983785
 C          2.3749717990        2.2941953298        1.6652663551
 C          1.1834082148        1.6950903482        1.2156332232
 C          1.2237269456        0.3953027841        0.5780279944
 C          2.4499075454       -0.2466495956        0.5160937759
 C         -0.0134054834       -0.1699924273       -0.0600725344
 C          0.3030945017        0.0198634123       -1.5407926878
 C         -0.1041700750        1.1801358631       -2.2002376045
 C          0.2122234829        1.3890325634       -3.5264276506
 C          0.9463543908        0.4452965434       -4.2325230461
 C          1.3666755954       -0.7047725994       -3.5828334751
 C          1.0582411848       -0.9146274071       -2.2536218339
 C         -0.2614929787       -1.6058314173        0.3662767457
 C         -0.7591384115       -2.5719569849       -0.5045203407
 C         -1.0387620234       -3.8487069842       -0.0489928580
 C         -0.8470522221       -4.1776026000        1.2810461637
 C         -0.3697288561       -3.2138521494        2.1590839847
 C         -0.0782321795       -1.9435018134        1.7039502290
 C         -1.2758603367        0.5651127174        0.2989907127
 C         -2.5146864474        0.1240281111       -0.1171901793
 C         -3.6896286115        0.7968441152        0.1936039907
 C         -5.0211777279        0.3003487495       -0.2628361946
 C         -3.6136684659        1.9922805498        0.9651892303
 C         -2.4080101587        2.4699306368        1.3800105598
 C         -1.2151378376        1.7859838457        1.0581889507
 N         -0.0134351877        2.2908714261        1.4308523689
 H          5.3177573943       -0.5685235282        1.9094398857
 H          4.8342938090       -1.3258796317        0.3856469445
 H          5.6639152952        0.2382993337        0.3868110801
 H          4.4814405818        2.1018653777        1.8905069199
 H          2.3220820290        3.2779795347        2.1132796346
 H          2.4961948008       -1.2366579590        0.0887452037
 H         -0.6839813910        1.9220634660       -1.6714375485
 H         -0.1197845270        2.2922464957       -4.0181944996
 H          1.1881404677        0.6064991055       -5.2721558613
 H          1.9438566971       -1.4454709807       -4.1182657226
 H          1.4009556838       -1.8163255257       -1.7708371642
 H         -0.9288710437       -2.3294549287       -1.5428497626
 H         -1.4165618311       -4.5895814199       -0.7395172604
 H         -1.0722588902       -5.1726812689        1.6348033942
 H         -0.2278983053       -3.4564472371        3.2023313026
 H          0.2946521701       -1.1977763982        2.3917830702
 H         -2.5749087841       -0.7805450604       -0.7029574673
 H         -5.5025904680        1.0364139375       -0.9089952655
 H         -4.9214706366       -0.6318717974       -0.8128154577
 H         -5.6816814625        0.1346676592        0.5893630971
 H         -4.5254916570        2.5135242473        1.2130115091
 H         -2.3409109886        3.3807680378        1.9601314926
 H         -0.0117357793        3.1758035031        1.9252573900
  51
  -72.0487557305000       0.145988136246846      !
 C          4.8713855825       -0.7601391698        1.2054069203
 C          3.6145844180        0.0454580919        1.2226538717
 C          3.6127678713        1.3276231521        1.8396722215
 C          2.4752791072        2.0759276100        1.8699420376
 C          1.2806772045        1.5911489333        1.2937890484
 C          1.2656450474        0.2987979297        0.6616221723
 C          2.4403545996       -0.4228397651        0.6439931540
 C          0.0152820229       -0.1879787354       -0.0183757643
 C          0.1131219185        0.0449628809       -1.5261496224
 C         -0.6075077405       -0.7448129530       -2.4274682377
 C         -0.5454716450       -0.5007966275       -3.7838862222
 C          0.2198317708        0.5439489125       -4.2799985722
 C          0.9269716683        1.3430809388       -3.3907832462
 C          0.8749515631        1.0987832011       -2.0346240584
 C         -0.1662473837       -1.6397932439        0.3794270422
 C          0.3825298614       -2.6842767184       -0.3603041800
 C          0.2344171152       -3.9948347712        0.0587189099
 C         -0.4521288954       -4.2844551788        1.2246658625
 C         -0.9841209012       -3.2477325304        1.9775460012
 C         -0.8399838813       -1.9392121325        1.5586361319
 C         -1.2017542736        0.6393712543        0.2810110469
 C         -2.4834958392        0.2304613378       -0.0598623423
 C         -3.5875424844        1.0442819217        0.0899149137
 C         -4.9620351637        0.5810062714       -0.2609010342
 C         -3.4122130049        2.3729078239        0.6009479327
 C         -2.1739457800        2.8052912973        0.9713171625
 C         -1.0544737476        1.9637031826        0.8507961875
 N          0.1562392656        2.3491171280        1.3181197629
 H          5.2352804511       -0.9242572872        2.2207915885
 H          4.7087912949       -1.7257705414        0.7335677853
 H          5.6564685489       -0.2332842599        0.6599336891
 H          4.5249972361        1.6975627544        2.2819870593
 H          2.4654633540        3.0531188464        2.3342545085
 H          2.4518780532       -1.3912169833        0.1681615148
 H         -1.2158579744       -1.5590407313       -2.0663543599
 H         -1.1034613059       -1.1296531235       -4.4633811970
 H          0.2640243040        0.7346433846       -5.3415115603
 H          1.5285650339        2.1603176851       -3.7624577480
 H          1.4441973838        1.7244388621       -1.3636670644
 H          0.9205094144       -2.4743416437       -1.2728765829
 H          0.6599880175       -4.7947719386       -0.5305342679
 H         -0.5696241211       -5.3080317092        1.5480483129
 H         -1.5132149580       -3.4623560084        2.8946627556
 H         -1.2565447563       -1.1361854570        2.1494547432
 H         -2.6222780589       -0.7669564567       -0.4486750745
 H         -5.3988037988        1.2300639650       -1.0212496129
 H         -4.9467782478       -0.4379866305       -0.6390551581
 H         -5.6142816557        0.6202388411        0.6130809231
 H         -4.2736858539        3.0145545765        0.6957064019
 H         -2.0331498067        3.7989913072        1.3765095707
 H          0.2218069241        3.2658217807        1.7455816602
  51
  -72.0487027431000       0.138027696799960      !
 C          4.8326202793       -0.4806333375        1.4693125365
 C          3.5447964894        0.2721576814        1.3956978616
 C          3.4395660406        1.5596806491        1.9867350191
 C          2.2612496604        2.2424956438        1.9484002531
 C          1.1245775845        1.6797458503        1.3265679894
 C          1.2135503429        0.3782300555        0.7225863833
 C          2.4257730245       -0.2744072018        0.7734986357
 C          0.0277972761       -0.1907325672       -0.0079080572
 C          0.1810414996        0.0346493649       -1.5122069726
 C          0.9034366951        1.1265576773       -1.9982519168
 C          1.0016128201        1.3620106659       -3.3531572833
 C          0.3816023462        0.5163002146       -4.2639999692
 C         -0.3443645283       -0.5664612418       -3.7904000470
 C         -0.4529843657       -0.8026006305       -2.4357809534
 C         -0.0875932468       -1.6475402731        0.3967141467
 C         -0.8012719450       -1.9779590993        1.5428639748
 C         -0.8879407434       -3.2900103135        1.9678617058
 C         -0.2563237124       -4.2978289211        1.2542696300
 C          0.4697842968       -3.9761163942        0.1213580846
 C          0.5586561112       -2.6625564269       -0.3043492896
 C         -1.2477094708        0.5686786985        0.2194814389
 C         -2.4878117364        0.0798171515       -0.1684366960
 C         -3.6390810042        0.8360718495       -0.0976720478
 C         -4.9690234064        0.2873435389       -0.4935372898
 C         -3.5601156999        2.1881271142        0.3760228031
 C         -2.3672857361        2.6977307923        0.7939624658
 C         -1.2007556896        1.9146272797        0.7577583591
 N         -0.0390051059        2.3753165090        1.2770253611
 H          4.9271018452       -0.9766856635        2.4387937305
 H          4.8806660507       -1.2435733362        0.6950680233
 H          5.6816575569        0.1928982462        1.3591239397
 H          4.3060370650        1.9918742111        2.4627842445
 H          2.1755672322        3.2260633556        2.3905343315
 H          2.5154096232       -1.2492034842        0.3197327710
 H          1.4048977268        1.7896810281       -1.3093506612
 H          1.5707755982        2.2097895365       -3.7070171899
 H          0.4620720432        0.7011171030       -5.3244743881
 H         -0.8353474661       -1.2319192242       -4.4862960680
 H         -1.0297805092       -1.6472148051       -2.0929673154
 H         -1.2954733117       -1.1976277912        2.1035059657
 H         -1.4505733447       -3.5290196513        2.8583809316
 H         -0.3274752325       -5.3242333045        1.5821303169
 H          0.9726319728       -4.7538952675       -0.4358316724
 H          1.1281954430       -2.4263061208       -1.1909154390
 H         -2.5534435066       -0.9341622505       -0.5328552649
 H         -4.8832807285       -0.7428087140       -0.8297227014
 H         -5.6633300960        0.3248709460        0.3473686962
 H         -5.4021600705        0.8828663643       -1.2986502259
 H         -4.4584854619        2.7842206183        0.4042800986
 H         -2.2996140370        3.7092934908        1.1733337835
 H         -0.0443054894        3.3039712601        1.6832121949
  51
  -72.0486658178000       0.132738390773012      !
 C          4.9974021165       -0.1454695939        0.6341231161
 C          3.6491684230        0.4384708690        0.8962336302
 C          3.5283965178        1.5486708909        1.7853351459
 C          2.3065899937        2.0876319810        2.0488173141
 C          1.1431546953        1.5618922275        1.4469387346
 C          1.2487357716        0.4550683323        0.5287249396
 C          2.5045123474       -0.0706302721        0.2996745992
 C          0.0191424922       -0.1137716837       -0.1253075769
 C          0.2965917461       -0.0163738101       -1.6173855248
 C         -0.0246369615        1.1595431146       -2.2905992440
 C          0.2592838302        1.3071732883       -3.6332349166
 C          0.8740274724        0.2794995394       -4.3357447456
 C          1.2084874573       -0.8882483091       -3.6723678744
 C          0.9297912406       -1.0364083008       -2.3256931542
 C         -0.2445719770       -1.5257053990        0.3860827176
 C         -0.8706063081       -2.4920354724       -0.4027319304
 C         -1.1409468695       -3.7479581584        0.1060520676
 C         -0.8080845623       -4.0664855146        1.4121231562
 C         -0.2000252357       -3.1053183944        2.2091003611
 C          0.0772860174       -1.8524926869        1.7025401084
 C         -1.2527601441        0.6034522064        0.2324055630
 C         -2.4648609007        0.2772932318       -0.3488828000
 C         -3.6545618291        0.8853089944        0.0128310458
 C         -4.9514014797        0.5211843450       -0.6293715131
 C         -3.6380742668        1.8913200150        1.0305375004
 C         -2.4633351815        2.2556840603        1.6143297331
 C         -1.2509155727        1.6472567924        1.2321124551
 N         -0.0752758658        2.0668646246        1.7569986463
 H          5.6608346730        0.6039198668        0.1994787303
 H          5.4556964219       -0.4840478318        1.5647185400
 H          4.9313962457       -0.9886374284       -0.0486170345
 H          4.4180072936        1.9490976867        2.2461254985
 H          2.2035538642        2.9241951929        2.7274201783
 H          2.6023337534       -0.9113142252       -0.3693848646
 H         -0.5051189070        1.9647362989       -1.7536773332
 H          0.0007266026        2.2269744322       -4.1375647958
 H          1.0919897164        0.3920566844       -5.3872054510
 H          1.6938583692       -1.6925064391       -4.2072404472
 H          1.1992866178       -1.9559242968       -1.8284450454
 H         -1.1417806544       -2.2675757255       -1.4227508133
 H         -1.6190614112       -4.4852217163       -0.5234735119
 H         -1.0206356642       -5.0485176858        1.8070158289
 H          0.0612583907       -3.3387741212        3.2312702447
 H          0.5560666677       -1.1178504559        2.3334014073
 H         -2.4842664821       -0.4793053987       -1.1180287406
 H         -5.3989720423        1.3924943046       -1.1111417584
 H         -4.8125142208       -0.2569246744       -1.3758853101
 H         -5.6604604632        0.1643172864        0.1197167478
 H         -4.5667945487        2.3568310910        1.3208304149
 H         -2.4377240767        3.0237414625        2.3764007364
 H         -0.1085604581        2.8240825532        2.4301655170
  51
  -72.0485694783000       0.119873167047904      !
 C          4.9403120898       -0.0726436486        0.8059993793
 C          3.5568584908        0.4050987604        1.0970028564
 C          3.3478532577        1.3062314386        2.1916495882
 C          2.0997879576        1.7840426894        2.4559082189
 C          1.0005299039        1.3964426171        1.6676537227
 C          1.1833491807        0.4483591693        0.5888281534
 C          2.4728391422        0.0054233623        0.3397161805
 C         -0.0052416229       -0.0848175404       -0.1595479069
 C          0.2048447644       -0.0276513746       -1.6616941352
 C          0.8608849902        1.0701923467       -2.2095705340
 C          1.0278465160        1.1854495133       -3.5755502386
 C          0.5394982367        0.2022388934       -4.4244299544
 C         -0.1275884549       -0.8857767701       -3.8896942787
 C         -0.3010136422       -0.9997970885       -2.5216709012
 C         -0.0886658261       -1.4956595826        0.4188520697
 C         -0.8448068537       -1.7392070295        1.5660148475
 C         -0.8869102704       -2.9963345984        2.1316400418
 C         -0.1756392908       -4.0475434250        1.5671060152
 C          0.5851827931       -3.8133943164        0.4326093100
 C          0.6383289683       -2.5544623167       -0.1315057069
 C         -1.2830894272        0.6621543941        0.1094931066
 C         -2.4498142980        0.3842300073       -0.5716630609
 C         -3.6435554853        1.0460504276       -0.3121093337
 C         -4.8917189708        0.7373896703       -1.0704479554
 C         -3.6708470704        2.0425646168        0.7055973880
 C         -2.5436722106        2.3375702262        1.4098460550
 C         -1.3311598806        1.6657420653        1.1407447498
 N         -0.2208404797        1.9457342223        1.8665005693
 H          5.5906242748        0.7666468409        0.5545343682
 H          5.3659006855       -0.5613060459        1.6830828664
 H          4.9448237825       -0.7762292885       -0.0223076194
 H          4.1923508554        1.6037216964        2.7927799039
 H          1.9337589627        2.4783974971        3.2692776485
 H          2.6366366077       -0.6753489425       -0.4816865832
 H          1.2452208856        1.8390755592       -1.5548482132
 H          1.5407785763        2.0446953257       -3.9826786313
 H          0.6766995512        0.2871743101       -5.4921202827
 H         -0.5183977836       -1.6536006038       -4.5423823001
 H         -0.8241159482       -1.8559617461       -2.1225661747
 H         -1.4131521766       -0.9377055532        2.0143996884
 H         -1.4823479117       -3.1631814510        3.0178677043
 H         -0.2132961499       -5.0323010125        2.0076282106
 H          1.1473059495       -4.6206956823       -0.0155546412
 H          1.2449212719       -2.3969881251       -1.0095370604
 H         -2.4376010765       -0.3727689600       -1.3404406195
 H         -4.7158194635       -0.0366395010       -1.8126094821
 H         -5.6775446178        0.3996456553       -0.3933070793
 H         -5.2618256304        1.6292702427       -1.5777848353
 H         -4.5971195842        2.5571662221        0.9096691714
 H         -2.5557043159        3.0890142064        2.1883543967
 H         -0.3079499507        2.6356236997        2.6040215544
  51
  -72.0471694537000       2.724678228588358E-002 !
 C          4.9336355880       -0.5530394263        0.7724562821
 C          3.6269710291        0.1258157448        1.0154683525
 C          3.5611098699        1.1979020990        1.9612005102
 C          2.3800129839        1.8318019465        2.1963989523
 C          1.2058881579        1.4413209639        1.5197457909
 C          1.2472071326        0.3420422288        0.5810147281
 C          2.4702582705       -0.2620587563        0.3590238216
 C         -0.0055651394       -0.1229288430       -0.1087650310
 C          0.1304823046        0.0078900609       -1.6193954086
 C         -0.4997823936       -0.8701343329       -2.5004635612
 C         -0.3918537751       -0.6923018610       -3.8673773723
 C          0.3328498307        0.3679103174       -4.3842884643
 C          0.9480971326        1.2572790521       -3.5135472637
 C          0.8473296953        1.0782923721       -2.1487359389
 C         -0.1724321437       -1.5517699212        0.3924532794
 C          0.4214626884       -2.6361983060       -0.2538833278
 C          0.2914976866       -3.9151197491        0.2543457697
 C         -0.4212027980       -4.1411584745        1.4190564898
 C         -1.0000551826       -3.0646067690        2.0789689505
 C         -0.8755568203       -1.7874028997        1.5722426382
 C         -1.2253751496        0.6963329453        0.2187669252
 C         -2.4630286129        0.3967582536       -0.3061026813
 C         -3.5983366770        1.1557677598       -0.0360959790
 C         -4.9139662561        0.7871387038       -0.6395014511
 C         -3.4791097202        2.2897606666        0.8156476252
 C         -2.2768608202        2.6124593482        1.3676552966
 C         -1.1295410779        1.8312005042        1.1020283496
 N          0.0489355978        2.1196908477        1.7042861209
 H          4.8553356693       -1.2699098966       -0.0412462268
 H          5.7075598000        0.1761049550        0.5278192719
 H          5.2585068471       -1.0829801220        1.6706880709
 H          4.4601204306        1.4967609937        2.4768547151
 H          2.3209456043        2.6507234564        2.9014682166
 H          2.5285357552       -1.0691707067       -0.3546328402
 H         -1.0711594653       -1.7031073621       -2.1205264175
 H         -0.8809773945       -1.3879434817       -4.5347796056
 H          0.4165588965        0.5037626014       -5.4521112629
 H          1.5110949028        2.0928171317       -3.9038439213
 H          1.3342187992        1.7746411893       -1.4814126834
 H          0.9811736738       -2.4858720889       -1.1639916281
 H          0.7526970092       -4.7432458538       -0.2653499662
 H         -0.5234127259       -5.1412406153        1.8125245806
 H         -1.5532179727       -3.2264570265        2.9927374954
 H         -1.3327246611       -0.9594185082        2.0944384741
 H         -2.5645512840       -0.4605340931       -0.9532167121
 H         -5.1723215936       -0.2446275378       -0.3987032114
 H         -5.7061181233        1.4378389360       -0.2778627088
 H         -4.8710431364        0.8659874298       -1.7271225307
 H         -4.3534505905        2.8878991302        1.0215946070
 H         -2.1783329889        3.4675572221        2.0231433198
 H          0.0662201530        2.9063668322        2.3434140165
  51
  -72.0468131420000       1.868812377759507E-002 !
 C          4.9466838594        0.0323352130        0.7285083641
 C          3.5522658524        0.4452604926        1.0626254032
 C          3.3280453447        1.2498652561        2.2301476648
 C          2.0689720995        1.6708643244        2.5380967012
 C          0.9764491588        1.3202798912        1.7264865086
 C          1.1741343534        0.4599078490        0.5747713330
 C          2.4754493130        0.0728352576        0.2850613646
 C         -0.0130075566       -0.0673112694       -0.1788630535
 C          0.1984828779       -0.0389247919       -1.6797269772
 C          0.8419118384        1.0536903035       -2.2503722071
 C          1.0061273114        1.1410902812       -3.6193127050
 C          0.5259419071        0.1353114011       -4.4454666539
 C         -0.1292530208       -0.9478976538       -3.8875319509
 C         -0.2986073719       -1.0342397478       -2.5165603718
 C         -0.0828562159       -1.4706761029        0.4227819873
 C         -0.8667445027       -1.7250688107        1.5503144595
 C         -0.8864408321       -2.9764222685        2.1293782488
 C         -0.1236890783       -4.0108638101        1.6028800502
 C          0.6622198266       -3.7667413883        0.4860028736
 C          0.6911762833       -2.5153956727       -0.0931094863
 C         -1.2896506768        0.6812938020        0.0983022917
 C         -2.4336610753        0.4753865047       -0.6362165167
 C         -3.6343474411        1.1300686002       -0.3549965189
 C         -4.8385858050        0.8903121872       -1.2059280043
 C         -3.6841558639        2.0213633863        0.7451616698
 C         -2.5749889305        2.2449594712        1.5051793515
 C         -1.3550889909        1.5958795604        1.2038300440
 N         -0.2558136473        1.8265312112        1.9645232376
 H          5.5958833198        0.9077187941        0.6403312884
 H          5.3552217352       -0.5981713952        1.5237674752
 H          4.9761729003       -0.5243830720       -0.2072850730
 H          4.1692969684        1.5210932749        2.8475702228
 H          1.8903978270        2.2944413213        3.4044437153
 H          2.6525709635       -0.5335683545       -0.5903512320
 H          1.2165824981        1.8402840194       -1.6112920533
 H          1.5088254207        1.9965565902       -4.0462618149
 H          0.6592102231        0.1998847125       -5.5151045511
 H         -0.5125540019       -1.7335862419       -4.5229047698
 H         -0.8102351464       -1.8869049939       -2.0953220733
 H         -1.4781333011       -0.9402910005        1.9699524618
 H         -1.5054264683       -3.1522899976        2.9977213987
 H         -0.1411620201       -4.9897915546        2.0572320624
 H          1.2626298647       -4.5613681264        0.0659024463
 H          1.3158349756       -2.3488371867       -0.9565080829
 H         -2.4101463084       -0.2121227743       -1.4676535377
 H         -5.6914607192        1.4596604041       -0.8452755970
 H         -4.6401070891        1.1791071329       -2.2391812796
 H         -5.1026115479       -0.1679021819       -1.2095636889
 H         -4.6118054131        2.5228725619        0.9759433866
 H         -2.6059724488        2.9224889694        2.3478066508
 H         -0.3596637831        2.4548945499        2.7530173797
