  78
       -123.39090393
 C         -3.5902286949       -3.4341091332       -1.5505604899
 C         -3.6388611711       -2.1479408965       -0.7895388039
 C         -4.8248395391       -1.4430808999       -0.7423985000
 C         -4.9239491026       -0.2239595544       -0.0767817695
 N         -6.1659527049        0.4847768009       -0.0572957603
 C         -6.3661830037        1.4425187420       -1.0350475156
 C         -5.3841611634        1.6438287915       -2.0130968174
 C         -5.5332198428        2.5930686288       -3.0037089519
 C         -6.6727977388        3.3788095072       -3.0579576234
 C         -7.6596124827        3.1928538841       -2.1091577584
 C         -7.5149817375        2.2398031084       -1.1115066874
 S         -8.8556359185        2.1066691664        0.0300366934
 C         -8.3098687659        0.8021610891        1.0880809430
 C         -9.1833062825        0.4383815244        2.1025397127
 C         -8.8508559241       -0.5603300202        2.9973265766
 C         -7.6258917015       -1.1947747363        2.8704927494
 C         -6.7539145692       -0.8379090180        1.8620598412
 C         -7.0708119710        0.1666414771        0.9392400127
 C         -3.8071720835        0.3020753910        0.5637522456
 C         -2.6183148536       -0.3866455179        0.5243884251
 C         -2.4912759965       -1.6164305539       -0.1492745267
 C         -1.2123568882       -2.2877328059       -0.1698697459
 C         -0.0105323532       -1.5908625136       -0.0644382252
 C          1.1963339747       -2.2895840385       -0.0780719874
 C          2.4738618008       -1.6209286292       -0.0098053818
 C          2.5856661317       -0.2895861311       -0.4561445568
 C          3.7765765536        0.3951587436       -0.4156087661
 C          4.9131732597       -0.2375327660        0.0761714263
 N          6.1618717170        0.4581689613        0.1237939388
 C          6.9948203516        0.3525202757       -0.9753933603
 C          6.6035068513       -0.4396461458       -2.0619698187
 C          7.3996214849       -0.5764601836       -3.1808663644
 C          8.6204284299        0.0739070477       -3.2582848119
 C          9.0273877939        0.8624178183       -2.1994040789
 C          8.2305790609        1.0041857477       -1.0727411863
 S          8.8687904073        2.0513222338        0.1981593188
 C          7.6134281067        1.9361684777        1.4347264261
 C          7.8452532801        2.6467081832        2.6034198794
 C          6.9265696240        2.6300574160        3.6351109042
 C          5.7650822888        1.8895021327        3.4877571793
 C          5.5297576295        1.1804648965        2.3274285180
 C          6.4445238837        1.1832717193        1.2669307514
 C          4.8289233225       -1.5547587074        0.5203928121
 C          3.6404440252       -2.2559110466        0.4878193415
 C          3.6129588192       -3.6555979453        1.0134172567
 N          1.1538323968       -3.6565511623       -0.1666823051
 C         -0.0050632663       -4.2469281882       -0.2798471528
 N         -1.1671324631       -3.6509588554       -0.2998701691
 H         -2.8080065585       -3.3991128952       -2.3066086294
 H         -4.5438520327       -3.6289702027       -2.0362563167
 H         -3.3527903075       -4.2581954197       -0.8815831466
 H         -5.7024925491       -1.8352048267       -1.2373596716
 H         -4.4925329378        1.0390910482       -1.9867961390
 H         -4.7511106269        2.7168384797       -3.7368762311
 H         -6.7944497415        4.1241476979       -3.8274842435
 H         -8.5615526150        3.7856900246       -2.1256637212
 H        -10.1274634488        0.9563786977        2.1772674942
 H         -9.5374510059       -0.8348782101        3.7820379799
 H         -7.3426227497       -1.9746815417        3.5603553746
 H         -5.8039774349       -1.3400406243        1.7781592383
 H         -3.8850731330        1.2407738391        1.0928466993
 H         -1.7700661782        0.0163119888        1.0553820132
 H         -0.0146971390       -0.5171985744        0.0239383015
 H          1.7226865004        0.2033918981       -0.8752451783
 H          3.8410129538        1.4132376987       -0.7712687399
 H          5.6562247498       -0.9516659461       -2.0175036990
 H          7.0603903574       -1.1961775027       -3.9964922849
 H          9.2473840033       -0.0287098176       -4.1294352660
 H          9.9720359772        1.3839317891       -2.2293587000
 H          8.7603922408        3.2130715994        2.6868460391
 H          7.1165896962        3.1867804340        4.5386851644
 H          5.0335074914        1.8606872006        4.2805416326
 H          4.6220017421        0.6079246391        2.2287871893
 H          5.7216081789       -2.0291673850        0.9038803888
 H          3.3537047430       -4.3517469873        0.2187586198
 H          2.8551035784       -3.7561947125        1.7882007272
 H          4.5813027858       -3.9282683536        1.4275448547
 H         -0.0027358445       -5.3268412999       -0.3654442857
