109
 energy: -168.123057896872 gnorm: 0.000042420264 xtb: 6.7.1 (edcfbbe)
C            7.26360099316146        4.39428415524207       -1.74321095496459
C            7.85199752039551        4.02964249860341       -0.54309064707751
C            7.21930249654054        3.14242968178922        0.30563515662635
C            5.98298088002657        2.59792110694065       -0.04088961641489
N            5.34818115840962        1.68505120304684        0.81219291386995
C            6.11279356494395        0.72880658281971        1.49328626638901
C            5.77253500098961        0.33722108388850        2.78760896476855
C            6.52783162783068       -0.61010513035113        3.44977033458638
C            7.63832261840906       -1.17300729503789        2.84307215737754
C            7.98398582245690       -0.78496936955801        1.55947866917197
C            7.22731166521845        0.15222277419310        0.88401767892059
C            3.95806660666336        1.70946561776109        0.95201656294485
C            3.24252504335986        0.52846224827245        1.15079059468722
C            1.86891192583256        0.55167686582398        1.24803682900824
C            1.15635985054671        1.74519982210285        1.13852209370104
C           -0.30960635090270        1.72348314649445        1.15066068292480
C           -1.04032527433938        2.54678406784436        0.29478836020641
C           -2.41078574027445        2.42408190564541        0.19511022822392
C           -3.08877098297754        1.46819605119638        0.94762417265292
C           -4.49990033768942        1.22428805397678        0.66981687469911
N           -5.42637904923031        2.14060111534279        0.60038127946050
C           -6.57302318917076        1.48743339396213        0.26249230104859
C           -7.87638963910139        2.03611133499231        0.11320500560197
C           -8.11977681344409        3.39665070222001        0.32964461859593
C           -9.39269294208492        3.89812742912367        0.22399321106817
C          -10.44258718539265        3.03914857402290       -0.09570211445392
C          -10.21349194481659        1.70166194196084       -0.31889070143411
C           -8.92480881101951        1.15284815974061       -0.23292267089679
C           -8.64181451592152       -0.24455330308665       -0.50991190896079
C           -9.63915295670515       -1.12211092744051       -0.95885099034451
C           -9.36786971212773       -2.42989296057210       -1.28389890574034
C           -8.06699340128637       -2.91559077070083       -1.19635016010893
C           -7.06301985775432       -2.09254920379197       -0.74995246657890
C           -7.32651446632106       -0.76752854194420       -0.37346144193440
C           -6.32409733727113        0.12639856224522        0.09885164377260
N           -4.98504592661474       -0.03647138435768        0.37691479168126
C           -4.22066946395706       -1.21259876303480        0.48783388343508
C           -4.65315885525626       -2.25993118740841        1.29557301501110
C           -3.84068658538695       -3.36790291555646        1.45610817963150
C           -2.58401918991876       -3.40845757846638        0.88054110216231
C           -2.12394239151897       -2.34830458073643        0.10017490891319
C           -0.74006778758207       -2.30063282344380       -0.39093717565070
C           -0.42381337127557       -1.68073573818678       -1.60799101175870
C            0.87713614581084       -1.53299822022461       -2.04140346593353
C            1.89611963132814       -2.02497479325512       -1.23764631800755
C            1.59901650001906       -2.65582999706868       -0.00726806484900
C            0.28448346205532       -2.79326686617854        0.40888998297329
C            2.85926040332260       -2.98661257588523        0.59706725675812
C            3.21525677738574       -3.60166433469858        1.78995649585110
C            4.55600433369369       -3.76975582534608        2.07207003883495
C            5.53487003345398       -3.34992587005594        1.17450143837530
C            5.20578738870523       -2.73180568225561       -0.01621071202440
C            3.86039836420349       -2.53472440288384       -0.29371307644948
N            3.26331479799566       -1.95928760495201       -1.39849021679004
C            3.94033282102932       -1.34873746254565       -2.46428315697234
C            3.61637476702268       -1.66757307548343       -3.77944012912952
C            4.28821085632198       -1.05560526063390       -4.82174826411986
C            5.28987265302921       -0.13444580059055       -4.56367440816140
C            5.61738362897758        0.17902583432642       -3.25490722772039
C            4.94346500398485       -0.41929450455970       -2.20679780743708
C           -2.97822420429664       -1.27340454172242       -0.12798081709817
C           -2.37666879046335        0.71106060587672        1.87621479013924
C           -1.00700770908140        0.83739608928928        1.97185573686792
C            1.87782582729207        2.92571598061667        0.96644076280068
C            3.25414276466288        2.91288568278625        0.88397973229685
C            5.39480824646074        2.96801826119404       -1.25029932827292
C            6.03272982508615        3.86120812675661       -2.08911246478159
H            7.76027940351347        5.08926323548894       -2.40306105563262
H            8.80825801067948        4.44524278442177       -0.26135416791980
H            7.67663643255783        2.86548673259570        1.24426771273055
H            4.91636663231823        0.78534215989814        3.26986852982275
H            6.25263754321198       -0.90269403905010        4.45222354146008
H            8.23067345862133       -1.90724146475952        3.36785404409858
H            8.84542505489807       -1.22103965678371        1.07480206009579
H            7.49904851079035        0.44598387540124       -0.11983471656543
H            3.76967982761090       -0.41111749352733        1.22097982452325
H            1.33449419782839       -0.37771699716767        1.36998846479950
H           -0.52208439465717        3.25486761455270       -0.33495371173956
H           -2.97063887248325        3.03714189977791       -0.49485614134865
H           -7.28040982813363        4.02360480342525        0.58756297120539
H           -9.58594358811282        4.94736276744978        0.39248385785144
H          -11.44825126674605        3.42764440334519       -0.16976376537245
H          -11.05744241983317        1.07483181227867       -0.56015803875142
H          -10.65226004624441       -0.77047652414855       -1.06936828683305
H          -10.16291152396173       -3.07628995195467       -1.62574843769892
H           -7.84592814226707       -3.93311282402086       -1.48336843167862
H           -6.05154785294708       -2.46530641890182       -0.70703949758112
H           -5.61186800821840       -2.19895004256324        1.78874234312774
H           -4.18277231185257       -4.19471662146095        2.06082127246004
H           -1.95469972887346       -4.27204674747172        1.03384643707500
H           -1.22453525688785       -1.31465467004632       -2.23280989188226
H            1.09170063495521       -1.03055524302598       -2.97226704812620
H            0.06677253634601       -3.23992840518449        1.36737317465240
H            2.45571177601479       -3.94146546663636        2.47793257784069
H            4.85548716102650       -4.24129226673502        2.99594021440244
H            6.57487545845108       -3.50970492935804        1.41413873607411
H            5.97329879381595       -2.41945126171929       -0.70757678097819
H            2.85118569113529       -2.40336639203654       -3.97726454432847
H            4.03358644263529       -1.30617758647645       -5.84096049804136
H            5.81455760954750        0.33746671215824       -5.38055377966315
H            6.39199424083429        0.90284853255781       -3.04771848297036
H            5.17926321237226       -0.16426810941920       -1.18589666915409
H           -2.65430872734120       -0.44874290122235       -0.74366102169015
H           -2.89726939137573        0.01389727485164        2.51687227186201
H           -0.46664294150081        0.23834776963683        2.68966377031028
H            1.35550537155720        3.87002299303708        0.92120848260467
H            3.79634640725638        3.83938527999947        0.76305164357055
H            4.44078071787815        2.54603504754641       -1.53047332632834
H            5.56766338658614        4.13431778786739       -3.02504300727862
