109
 energy: -168.110813336133 gnorm: 0.000032243662 xtb: 6.7.1 (edcfbbe)
C          -10.42380989645840       -1.06245583308236       -3.80473477788598
C          -11.10550696697442       -0.80877565802853       -2.62575386320898
C          -10.42178967545096       -0.70152389288935       -1.43046923440379
C           -9.03610207518515       -0.85674976260538       -1.39706867532291
N           -8.33843171588716       -0.75597614999590       -0.18828712412405
C           -8.90425079966555       -1.25321719350917        0.99120650477684
C           -9.66301409178396       -2.42337331711331        0.97417717592572
C          -10.22452958071777       -2.90569816418278        2.14028653552314
C          -10.03374207921859       -2.23941336961732        3.33973168318571
C           -9.27649830861727       -1.07965897536531        3.36307526459982
C           -8.71799333034398       -0.58445317336296        2.20099644830719
C           -7.07482448221468       -0.15858448289170       -0.15915080495303
C           -6.79295895706223        0.94800485780785       -0.96090040980665
C           -5.54615606066651        1.53519357810849       -0.92818450087370
C           -4.53831891079810        1.04000082539904       -0.10178311248297
C           -3.21301250837058        1.66925010487394       -0.07142353297025
C           -2.05551736726283        0.89616175981363       -0.00464259583441
C           -0.80629970455223        1.48215436007456        0.01352812442533
C           -0.67845543809379        2.86939188451596       -0.03406469233699
C            0.60183126738613        3.55504973288064       -0.00511534175924
N            0.77488400662378        4.71485366826100        0.58029381408646
C            2.08496172101938        5.02837127319756        0.41213134557326
C            2.77586971143124        6.17424882514444        0.89516736923840
C            2.11918230458447        7.14950013671204        1.65293863811952
C            2.80856607907538        8.23446697453319        2.13326254800157
C            4.17029859103457        8.35404683042031        1.86249595032439
C            4.82458141354189        7.40351470980982        1.11437636745137
C            4.15338622870941        6.28423088289287        0.59831684339569
C            4.80858423657584        5.27846955659863       -0.22006966480926
C            6.15649467711443        5.39612293544583       -0.58767413858116
C            6.77802090600074        4.47016386828293       -1.39136560845981
C            6.06459063895666        3.38105241355577       -1.88107453088384
C            4.74354472487619        3.22556007855388       -1.54129581988145
C            4.09737349402773        4.14440217864753       -0.70168138695119
C            2.73181496340085        4.03046602452230       -0.31612808036716
N            1.76659620175408        3.08223280501019       -0.56898964669106
C            1.88454714041438        1.87588033148068       -1.28895386971964
C            1.19101285452736        1.72015065858534       -2.48286069691445
C            1.29076644122883        0.52392249845517       -3.17087279567118
C            2.07377763322113       -0.50360042554731       -2.67949140740118
C            2.77152397869387       -0.35875708894456       -1.48056827253552
C            3.59721907205084       -1.45368159256519       -0.95202192029924
C            4.40258839014797       -2.20287784814632       -1.82105128867486
C            5.18754944126345       -3.24537050151530       -1.37514169151334
C            5.15060727687717       -3.55725838123007       -0.02299512612865
C            4.36272526845251       -2.79805676671874        0.87344034740375
C            3.58933038592719       -1.74784968282121        0.40528132883643
C            4.58567651187210       -3.35105193687583        2.18005814347038
C            4.08894965590121       -3.05154497883376        3.44177571159345
C            4.50393316466735       -3.81592139097344        4.51356188786011
C            5.39093905450730       -4.87570553397946        4.33703922477792
C            5.89931017386162       -5.19233602759714        3.09186657188861
C            5.50396458102611       -4.41296981951658        2.01429758422818
N            5.83572434647323       -4.52585919503270        0.67788215883867
C            6.71397464393952       -5.47066505305998        0.12707806167699
C            6.31749808421867       -6.24147945061741       -0.96177127794208
C            7.18778059620089       -7.16891873933111       -1.50383816317671
C            8.45040835488835       -7.34246678997741       -0.96178156322059
C            8.84446565361641       -6.57912185879519        0.12463502967330
C            7.98509963715648       -5.64179268579272        0.66717618100066
C            2.66407256136223        0.84186116212172       -0.78623348023664
C           -1.83641855021262        3.64833973926545       -0.07186697768598
C           -3.08072488449866        3.05780042278915       -0.09774325737415
C           -4.82574479691848       -0.06680654232300        0.69577385114112
C           -6.07125494959313       -0.65727594414284        0.67200622749772
C           -8.35501856375959       -1.11543151628090       -2.58657488857037
C           -9.04695022116202       -1.21230491061965       -3.77794957154676
H          -10.96149191039421       -1.14273883137322       -4.73725828569938
H          -12.17844859482294       -0.68463526258336       -2.63751157373722
H          -10.95498341058123       -0.49378241718434       -0.51425550912288
H           -9.80527919864275       -2.95049626672110        0.04203264804399
H          -10.80864949734252       -3.81392324996905        2.11309199634092
H          -10.47196037665243       -2.62108755973819        4.24936293502079
H           -9.12645316326629       -0.55025129330201        4.29256861223438
H           -8.13655529284923        0.32573763893378        2.22047097001823
H           -7.56240267102357        1.34456891919991       -1.60721935635637
H           -5.34400496786612        2.38438779274125       -1.56431402069236
H           -2.13487115573701       -0.18107009953156        0.01691457443060
H            0.06819848950546        0.85350316335059        0.08467780747304
H            1.06656400717114        7.01286665638455        1.84643273474222
H            2.30628323605786        8.98946870388557        2.72004481380554
H            4.71932912595662        9.20292783927025        2.24429782736692
H            5.87937045793168        7.53783407802394        0.93367027968370
H            6.73436642952922        6.23844345941699       -0.24306596113238
H            7.81875434050611        4.59507963357813       -1.65233558719328
H            6.54486500492052        2.66232889095706       -2.52865911978149
H            4.19156025667644        2.38905152452488       -1.93888494785804
H            0.58230913169644        2.52920503976449       -2.85723682868505
H            0.75163603697991        0.39468987009494       -4.09737381800548
H            2.13188358168931       -1.43834076862183       -3.21661419421569
H            4.42755054876325       -1.93664718116795       -2.86744766318675
H            5.81952930853263       -3.79213223288534       -2.05859226079096
H            2.97295811512483       -1.18188459904073        1.08746488151623
H            3.38954226981057       -2.24020497871867        3.57583372853710
H            4.13155891534984       -3.59911208384621        5.50362195431346
H            5.68533377961706       -5.46568642852053        5.19238904745597
H            6.57255330661958       -6.02632783021715        2.96283113264446
H            5.32416495296632       -6.11865032386016       -1.36709805587316
H            6.87501675411475       -7.76502239912599       -2.34832455863049
H            9.12553443018112       -8.07076580242208       -1.38487612820473
H            9.82973516002859       -6.70818227209373        0.54749463539344
H            8.29615811249241       -5.02923955222016        1.50023952819982
H            3.20562245689598        0.98832697137896        0.13732623522147
H           -1.73261673997682        4.72217489882515       -0.07910810474574
H           -3.96638741939216        3.67587837332342       -0.11711541818185
H           -4.06612294068044       -0.45986426396053        1.35530802218565
H           -6.27724539389629       -1.51381082799179        1.29731651130320
H           -7.28248931732007       -1.24299054941581       -2.56710274090547
H           -8.50712131165843       -1.41550782271116       -4.69127787446708
