  101
       -158.87257183
 C          5.4721425682       -1.5802255253       -1.6434413999
 C          6.3224593154       -0.7897206200       -0.6955040858
 C          7.6778843563       -1.0575202042       -0.5858334464
 C          8.4868079234       -0.3323726524        0.2824293050
 N          9.8561339346       -0.6173991106        0.3718381022
 C         10.8780363373        0.3039722664        0.2641262042
 C         10.8159072981        1.6654236855        0.0026452314
 C         12.0069359214        2.3605175962       -0.0834700379
 C         13.2347438206        1.7222906392        0.0773724848
 C         13.3036827355        0.3637030124        0.3148464192
 C         12.1202963405       -0.3566751535        0.4052617813
 C         11.8213257844       -1.7460788866        0.6142144575
 C         12.6062073792       -2.8702970246        0.8321819737
 C         11.9810933964       -4.0869837529        1.0212338866
 C         10.5917329494       -4.1887295139        1.0085567595
 C          9.7893100629       -3.0845251341        0.7938717050
 C         10.4123448009       -1.8628852998        0.5814396052
 C          7.9293113654        0.6818795375        1.0541270109
 C          6.5825065066        0.9616989072        0.9392660179
 C          5.7697466479        0.2373215039        0.0749804439
 C          4.3299403219        0.5652370800       -0.0168308103
 C          3.3893801856       -0.2934103802        0.5408693199
 C          2.0405904218       -0.0070844747        0.4850109821
 C          1.6106586379        1.1549096515       -0.1502661406
 N          0.2481765630        1.4561904149       -0.2279052379
 C         -0.3311544893        2.6698893738        0.0785405803
 C          0.2486144999        3.8247345923        0.5857730495
 C         -0.5760792167        4.9054129968        0.8375671274
 C         -1.9468185236        4.8433290126        0.6029898007
 C         -2.5340193150        3.6869547271        0.1224543614
 C         -1.7271507518        2.5906545812       -0.1393976952
 C         -1.9930229360        1.2557623450       -0.6079170657
 C         -3.1479163388        0.6126571127       -1.0115766720
 C         -3.0666613057       -0.7191469983       -1.4333357193
 C         -4.2417257077       -1.4648422694       -1.8995985313
 O         -4.0962471258       -2.3274068904       -2.8144057484
 C         -5.5329243539       -1.2170392325       -1.3179721872
 C         -6.6768809308       -1.7201257955       -1.9904601321
 C         -7.9342005798       -1.5393669168       -1.4880437904
 C         -8.1157558107       -0.8688159201       -0.2692702351
 N         -9.4168487628       -0.6733955501        0.2529584406
 C        -10.1886942250       -1.7579434182        0.6316553585
 C         -9.7028231028       -3.0654808215        0.5843398433
 C        -10.5049076298       -4.1257724927        0.9591469056
 C        -11.8030002474       -3.9082204873        1.3959927360
 C        -12.2951470793       -2.6166459072        1.4757451894
 C        -11.4975947219       -1.5466172797        1.1046826938
 O        -12.0280861896       -0.2950940275        1.2290325986
 C        -11.2482495207        0.7671610972        0.8742054724
 C        -11.7968327248        2.0322973695        1.0082885122
 C        -11.0651379293        3.1479383833        0.6391634210
 C         -9.7883533899        2.9941923705        0.1207473124
 C         -9.2328145355        1.7367709096       -0.0165709360
 C         -9.9438186826        0.6008346156        0.3723150882
 C         -6.9955778528       -0.4187932131        0.4419463143
 C         -5.7341047804       -0.5970767156       -0.0626392178
 C         -1.8040968496       -1.3389862773       -1.5272935177
 C         -0.6469872169       -0.7083905042       -1.1345898179
 C         -0.7447603092        0.5900604161       -0.6439149754
 C          2.5493064901        2.0118530766       -0.7181937278
 C          3.9047452534        1.7349400706       -0.6546113253
 C          4.8948315148        2.6700251584       -1.2811880951
 H          4.9136418050       -2.3446489000       -1.1031869978
 H          4.7504664480       -0.9375454436       -2.1441315210
 H          6.0872100304       -2.0752651432       -2.3909474402
 H          8.1226743958       -1.8294595672       -1.1970486808
 H          9.8693473676        2.1647787495       -0.1406697351
 H         11.9853676036        3.4214956271       -0.2839500450
 H         14.1432845166        2.3011268704        0.0051120321
 H         14.2557523602       -0.1332867779        0.4236854249
 H         13.6823318019       -2.7890513709        0.8570172993
 H         12.5732267417       -4.9737980138        1.1905639218
 H         10.1312694666       -5.1514754169        1.1740785824
 H          8.7130269276       -3.1694341506        0.8029807663
 H          8.5489118134        1.2336480231        1.7446040591
 H          6.1436961455        1.7439410570        1.5415732603
 H          3.7267460584       -1.1893203815        1.0413729158
 H          1.3189804627       -0.6661159241        0.9426788881
 H          1.3075400905        3.8768274666        0.7891343881
 H         -0.1472924128        5.8160778028        1.2287086932
 H         -2.5579722063        5.7089605641        0.8098628133
 H         -3.5996473825        3.6327999063       -0.0425740960
 H         -4.0859263305        1.1436447966       -1.0382827355
 H         -6.5167076348       -2.2313237027       -2.9268631260
 H         -8.8009032427       -1.8934795891       -2.0279994950
 H         -8.6899723896       -3.2362569170        0.2569512613
 H        -10.1098543970       -5.1284941502        0.9120785199
 H        -12.4281232881       -4.7382943386        1.6837625558
 H        -13.2936806828       -2.4128091083        1.8276414783
 H        -12.7988129618        2.1165604584        1.3974215176
 H        -11.4957805710        4.1305881340        0.7467809975
 H         -9.2196340473        3.8589779263       -0.1836557630
 H         -8.2455522180        1.6182185645       -0.4330507265
 H         -7.1384834412        0.0465493282        1.4076330857
 H         -4.8821326014       -0.2964943803        0.5266519544
 H         -1.7701564277       -2.3449873891       -1.9154233454
 H          0.3077658170       -1.2051432659       -1.2185324966
 H          2.2068367229        2.8952905730       -1.2367949726
 H          5.3627512250        3.2929200704       -0.5188985950
 H          4.4052222149        3.3230862326       -1.9994779407
 H          5.6847628296        2.1156838061       -1.7844553169
