  108
       -171.76201891
 O          0.0007336225        5.0611978799        0.0314758910
 C         -0.0027733286        3.8467580214        0.0145822189
 C         -1.2693423995        3.0716241665       -0.0025988609
 C         -1.3856871592        1.8353359742        0.6313333539
 C         -2.5887306595        1.1590473177        0.6170607321
 C         -3.6909220648        1.7032335224       -0.0365099608
 N         -4.9147337125        0.9906626547       -0.0572563130
 C         -5.0052223460       -0.1619202282       -0.8285813847
 C         -3.9492647537       -0.5366250656       -1.6637465795
 C         -4.0256798393       -1.6800133436       -2.4324928385
 C         -5.1600485823       -2.4720839212       -2.3960441265
 C         -6.2189860508       -2.0928609984       -1.5933715882
 C         -6.1593777613       -0.9475548476       -0.8142857319
 C         -7.3689795655       -0.5859941400        0.0271016609
 C         -8.5347068650       -0.4030140258       -0.9263623813
 C         -8.4516681952        0.6670817794       -1.8142084135
 C         -9.4457706792        0.9272209611       -2.7351642293
 C        -10.5635361193        0.1087839351       -2.7881706491
 C        -10.6650502256       -0.9577862716       -1.9217895795
 C         -9.6559163049       -1.2165939215       -0.9962817068
 S         -9.9161298088       -2.6261054752        0.0309089467
 C         -8.5555011067       -2.5865686397        1.1514237096
 C         -8.5768224722       -3.5603160437        2.1480974355
 C         -7.5611876861       -3.6353497391        3.0760813993
 C         -6.5125426995       -2.7309044244        3.0137285969
 C         -6.4985731884       -1.7678766655        2.0255141698
 C         -7.5144277523       -1.6727235782        1.0771367839
 C         -7.1772086728        0.7253136570        0.7642146715
 C         -8.2277160986        1.1971825064        1.5362458985
 C         -8.1140893771        2.3635983406        2.2681947717
 C         -6.9189614771        3.0612551775        2.2406554818
 C         -5.8624578696        2.6064266478        1.4781290424
 C         -5.9803056061        1.4429999683        0.7135007932
 C         -3.5836929251        2.9435358283       -0.6589819054
 C         -2.3843031922        3.6251451728       -0.6299784874
 C          1.2583157528        3.0634831134        0.0126554118
 C          1.3682247218        1.8404900305       -0.6474869482
 C          2.5667085338        1.1559809643       -0.6457322509
 C          3.6710278985        1.6770936567        0.0230596977
 N          4.8912321494        0.9599572101        0.0328381014
 C          4.9664003543       -0.2311141166        0.7465836374
 C          3.8871035529       -0.6591525372        1.5244605984
 C          3.9499534767       -1.8395545060        2.2363406531
 C          5.0942159485       -2.6171819751        2.2010571740
 C          6.1759841483       -2.1858906238        1.4576666299
 C          6.1297198567       -1.0032849598        0.7352876115
 C          7.3683174502       -0.5843476588       -0.0339069785
 C          7.5958211780       -1.6298679894       -1.1105625640
 C          6.6341060593       -1.7140127781       -2.1147773616
 C          6.7264182679       -2.6376872614       -3.1358750297
 C          7.8012309510       -3.5122994933       -3.1752617520
 C          8.7634254214       -3.4485221780       -2.1910887692
 C          8.6629399447       -2.5148071484       -1.1614955750
 S          9.9605326819       -2.5652088829        0.0311156185
 C          9.6133077757       -1.1971419090        1.0881209694
 C         10.5653675984       -0.9488023646        2.0749268389
 C         10.3938611453        0.0858918658        2.9685152269
 C          9.2630898112        0.8830407342        2.8806635125
 C          8.3258072172        0.6335293940        1.8991225914
 C          8.4794414280       -0.4049770951        0.9836585679
 C          7.1782101238        0.7453149235       -0.7370935795
 C          8.2423037344        1.2508924672       -1.4682844438
 C          8.1338760125        2.4368506571       -2.1686534845
 C          6.9302519269        3.1200644385       -2.1510580682
 C          5.8603806201        2.6314705291       -1.4291559190
 C          5.9720819283        1.4477551144       -0.6950184062
 C          3.5698527332        2.9047436147        0.6718884677
 C          2.3759919343        3.5955661127        0.6538571969
 H         -0.5422435722        1.4176080855        1.1607505968
 H         -2.6857728788        0.2024949705        1.1093340643
 H         -3.0639582654        0.0787410697       -1.7156573527
 H         -3.1938883477       -1.9487571169       -3.0665214651
 H         -5.2230739200       -3.3691009913       -2.9919399281
 H         -7.1152895236       -2.6953773363       -1.5678215754
 H         -7.5801349580        1.3045531354       -1.7738884255
 H         -9.3503292077        1.7643421992       -3.4098020688
 H        -11.3505154681        0.3009502162       -3.5014263137
 H        -11.5248215349       -1.6106635348       -1.9458546910
 H         -9.4038090034       -4.2540944597        2.1757239729
 H         -7.5862277376       -4.3940420968        3.8433743315
 H         -5.7088534898       -2.7772388359        3.7328558416
 H         -5.6799343242       -1.0644317455        1.9796996520
 H         -9.1475937355        0.6305663747        1.5626170504
 H         -8.9429274407        2.7168886118        2.8613855553
 H         -6.8021983554        3.9650813572        2.8195926065
 H         -4.9334780802        3.1554131624        1.4817732342
 H         -4.4440594676        3.3641136751       -1.1580767678
 H         -2.2860612572        4.5904362144       -1.1035697095
 H          0.5232373066        1.4391852741       -1.1869966218
 H          2.6581895518        0.2104856894       -1.1598948917
 H          2.9935279426       -0.0563707117        1.5788248525
 H          3.0994788383       -2.1484432802        2.8256785956
 H          5.1474434798       -3.5422405500        2.7533674431
 H          7.0805518368       -2.7759342621        1.4348795056
 H          5.7957167688       -1.0330953859       -2.0867804541
 H          5.9637447746       -2.6760041084       -3.8987764379
 H          7.8882573881       -4.2389948481       -3.9685695622
 H          9.6087528262       -4.1203666609       -2.1994681200
 H         11.4369507533       -1.5842935443        2.1247207474
 H         11.1362566002        0.2691980485        3.7302634462
 H          9.1132431170        1.6954209018        3.5753200223
 H          7.4440760996        1.2544682803        1.8324546165
 H          9.1688762913        0.6949916779       -1.4873956161
 H          8.9731771120        2.8165779484       -2.7298657141
 H          6.8172920371        4.0393297323       -2.7059197015
 H          4.9254466195        3.1699234142       -1.4428611423
 H          4.4318213395        3.3087922258        1.1816509041
 H          2.2829147385        4.5511573195        1.1475413309
