43
 energy: -69.796781942753 gnorm: 0.000109159245 xtb: 6.7.1 (edcfbbe)
N           -6.69136922913063       -3.98395908876882        0.01282755280767
C           -5.75916382260423       -3.30487185630042        0.02329606572370
C           -4.62948234839432       -2.47976110710839        0.03809524669024
C           -3.35386515316314       -3.00613341467182       -0.25324841207404
C           -2.25728832436483       -2.19155164404606       -0.24347531747473
C           -2.36605041946213       -0.81142960035221        0.05713037373744
C           -1.17541297158296       -0.01107181444956        0.09060466617005
C           -1.19834514971791        1.41404892193608        0.10749210748647
C           -0.00157037387004        2.10866144301919        0.00080490409234
C           -0.00185348984132        3.58506932419586       -0.00028782770087
C           -0.90738275937166        4.28686276490941       -0.79087347615202
C           -0.90179259001394        5.67028503188833       -0.79433961025361
C           -0.00240315140408        6.36560082305616       -0.00275797856230
C            0.89721085494210        5.67202963538815        0.79008892843258
C            0.90342871023191        4.28859905733596        0.78902509011568
C            1.19697157730238        1.41444733167210       -0.10551086797034
C            1.17394329823769       -0.00972883967238       -0.08807221961921
C            2.36690126150679       -0.81004228734262       -0.05608918411521
C            3.64818600382800       -0.29574025181531       -0.35089177239214
C            4.75180837402715       -1.10666908155809       -0.35208313103576
C            4.63168327589190       -2.47435687206105       -0.03825109129449
C            5.76306786106545       -3.29827487023520       -0.02414747054027
N            6.69602730211947       -3.97588431087211       -0.01406165637316
C            3.35896934218064       -3.00095917746749        0.26192460769378
C            2.26078555239622       -2.18750572832920        0.25251711090661
N            0.00041664531824       -0.61186371480671        0.00221408516301
C           -3.65065525498883       -0.29747103302257        0.34273349919700
C           -4.75253953281571       -1.10976893244506        0.34373326025061
H           -3.25823550892279       -4.05870105210083       -0.47723800410496
H           -1.27696795244821       -2.58959177198365       -0.45771271791059
H           -2.14086329764194        1.93231161838969        0.10286046398950
H           -1.60063302956609        3.74912960395901       -1.42092081517736
H           -1.60387399401918        6.20638688591420       -1.41601843806267
H           -0.00263752367059        7.44556261914885       -0.00366784448056
H            1.59900702158156        6.20951711146891        1.41089121155243
H            1.59698460683160        3.75230090684138        1.41995436273319
H            2.13893084127939        1.93362426346301       -0.10011897026210
H            3.77115210163501        0.74720691710346       -0.59624226907741
H            5.72757601597735       -0.70677480170678       -0.58671223144783
H            3.26562080847424       -4.05224357680269        0.49267444837524
H            1.28228273046928       -2.58580278718776        0.47432711386025
H           -3.77647596324610        0.74691676403260        0.58035361116386
H           -5.73010123269662       -0.71006719291476        0.57119293027753
