43
 energy: -69.894148608925 gnorm: 0.000112197500 xtb: 6.7.1 (edcfbbe)
N           -6.73992737129127       -3.91124210815670       -0.01163988054142
C           -5.79880600619151       -3.25357277241800       -0.00546075242463
C           -4.64322862902296       -2.44259732636821        0.00101049726271
C           -3.45506872102286       -2.91159251263270       -0.56546026267389
C           -2.33220836167711       -2.11237813629117       -0.55347453781145
C           -2.36893836864394       -0.83594124687654        0.01086701401490
C           -1.14865184135559       -0.01381331133237        0.00177563892910
C           -1.19397000884699        1.37919725307460       -0.01688525685958
C           -0.00065503651370        2.09684520178422       -0.00446313465862
C           -0.00125012782154        3.56772810264022       -0.00291828224664
C           -0.87093095771876        4.27495944448810       -0.82979773608266
C           -0.86670795696756        5.65790145558102       -0.83040234301956
C           -0.00340160676209        6.35200524532996        0.00168258921871
C            0.86107573465996        5.65650542499955        0.83137859947782
C            0.86744741139907        4.27358261756030        0.82618206854641
C            1.19298346472978        1.37974939969350        0.00763546657537
C            1.14819801883211       -0.01329220165508       -0.01065649560136
C            2.36908685448544       -0.83456808740456       -0.01665445805860
C            3.55746848329511       -0.37917529107867       -0.58796881692714
C            4.68812671931807       -1.16986393474128       -0.57973552494318
C            4.64578712184081       -2.43754639698834        0.00493486214047
C            5.80308966656563       -3.24595800977124        0.01891129217250
N            6.74576768306655       -3.90130184063102        0.03162672470917
C            3.45697581125586       -2.90630799922874        0.57022360772236
C            2.33288454358037       -2.10894692058752        0.55233439094714
N           -0.00005390469380       -0.68247572483753       -0.00434091638417
C           -3.55693911845960       -0.37990901016985        0.58248906660337
C           -4.68636765451640       -1.17237095896126        0.58004979982346
H           -3.42604694280268       -3.89686191660501       -1.00708321335719
H           -1.40597630153045       -2.46100997451067       -0.98305064470524
H           -2.13783812660734        1.89987894290283       -0.03756438792179
H           -1.53562069405128        3.73766692836510       -1.49099386923421
H           -1.53952727053142        6.19621666617135       -1.48207491542547
H           -0.00439084530619        7.43206541907299        0.00362141340405
H            1.53296049016061        6.19369501281957        1.48494402096604
H            1.53293824184026        3.73514598278521        1.48564174774719
H            2.13669852629368        1.90070957056461        0.02862037305593
H            3.59626127807387        0.58974336154912       -1.06194876420399
H            5.60724935360329       -0.81823267016066       -1.02527727449596
H            3.42853647977568       -3.88975258118795        1.01593851016594
H            1.40624382461851       -2.45718419299630        0.98134957751944
H           -3.59633509838854        0.59087693257417        1.05256024385221
H           -5.60504112248763       -0.82024164894243        1.02612543745497
