96
 energy: -153.012413957702 gnorm: 0.000030122559 xtb: 6.7.1 (edcfbbe)
C            5.38698575919801       -4.70663625383125       -1.47868361479266
C            5.86800380583955       -4.32010612434252       -0.23807826329540
C            5.52147737052301       -3.09404350146122        0.29627340696753
C            4.68857164999051       -2.22752214096347       -0.41183285097427
N            4.33587562392149       -0.98512390336736        0.12895733047451
C            5.28544440317692       -0.24324318761291        0.84224139730050
C            4.91561372421991        0.48084195902188        1.97590587172517
C            5.85444817500106        1.22159895604191        2.66704344359930
C            7.17564901521819        1.24587210614752        2.25012601243840
C            7.55098832898924        0.52136291909084        1.13035793289545
C            6.61685264209425       -0.21475758714370        0.42705982647592
C            3.04252237570439       -0.48195906574251       -0.04749688933281
C            2.84903685722790        0.88634846464987       -0.19824542813056
C            1.56368786203759        1.39533273840724       -0.36448303574443
C            0.44857854231929        0.53206933761559       -0.38169188969431
C            0.67133191747602       -0.85214214515422       -0.24433266919432
C            1.95675602192774       -1.35344164979651       -0.07311141476397
N           -0.41066883983108       -1.71428477439582       -0.28504997950897
C           -0.12334444942098       -3.11299948210484       -0.34695239725462
C           -0.01784045010592       -3.86339302563643        0.81785076097727
C            0.28177373246236       -5.21219860272389        0.74145595059941
C            0.47741419591359       -5.81281068028037       -0.49177855591417
C            0.37097194340702       -5.06398978367613       -1.65191630788310
C            0.07212771056637       -3.71403698624695       -1.58274492736483
C           -1.72391520851988       -1.30995234409680       -0.20090407992301
C           -2.71524990212981       -2.29639893879988       -0.09600661679005
C           -4.03367058276450       -1.94009459424112        0.09329991199433
C           -4.41725256875702       -0.59456626934159        0.23657673149604
C           -3.41145593814422        0.36974556835431        0.09017840310724
C           -2.07066302320636        0.06345967266726       -0.21000746647600
B           -0.95583926432036        1.08197301899783       -0.53254778159859
C           -1.00772847063366        2.54630642971550       -1.02268123209847
C           -2.12181998508509        3.16124155184210       -1.60604943886194
C           -2.12367570126901        4.48371778181372       -1.99027186321558
C           -0.98460394883132        5.25301422424828       -1.78529030068354
C            0.15279637573858        4.67563413830424       -1.26925077736082
C            0.17427578754573        3.31640376426216       -0.92535724319447
N            1.36980267668530        2.75255303095113       -0.51365298570184
C            2.49596527037473        3.60519262617155       -0.30191625731999
C            3.36617958271719        3.90073110320984       -1.34462980344679
C            4.46544593898767        4.70912512694568       -1.11504542005239
C            4.69829938943065        5.22426116428002        0.15005507867230
C            3.82874427906640        4.93233543661536        1.18753379170940
C            2.72819866979825        4.12252589918375        0.96516577168062
O           -3.70141458285229        1.67621400711225        0.28531415819020
C           -4.96646990461522        2.13174725671340        0.47833569992975
C           -5.05833932108054        3.52489009425818        0.57020747869679
C           -6.28568625742371        4.12740501709961        0.71746292248674
C           -7.43557337342363        3.34541902406237        0.76373250366619
C           -7.33745466884388        1.97383100456748        0.69084954029388
C           -6.10743042423705        1.31098718109833        0.56843774051520
B           -5.86114669654293       -0.21782985885259        0.52826453958109
C           -6.79560837883936       -1.44221902212002        0.72996676468568
C           -8.13975735462455       -1.41549949372472        1.12598304183846
C           -8.90286885186555       -2.55690615230187        1.24332914750935
C           -8.34115532169609       -3.79737429356822        0.96516726613005
C           -7.01626011360462       -3.87709780794803        0.60056234893341
C           -6.24525721511267       -2.71656252134491        0.49582225987171
O           -4.94126254895942       -2.94693964574313        0.16606561074021
C            4.21430133740811       -2.61868905581625       -1.66403376679990
C            4.55900818083083       -3.85017123776625       -2.18629882926695
H            5.65662071709764       -5.66725303000788       -1.89126786540895
H            6.51198817669028       -4.98186659843268        0.32303360173695
H            5.89097443836070       -2.79831011491651        1.26759437389928
H            3.88804717027429        0.45632300361639        2.30785930009568
H            5.55322195547366        1.77784977697225        3.54291713647409
H            7.90733942311309        1.82399179358573        2.79427569179475
H            8.57813174063107        0.53627935098341        0.79534774131920
H            6.91036835866680       -0.77088855420303       -0.45159079555187
H            3.70698482687477        1.53927392305076       -0.19547529354388
H            2.12949920822518       -2.40973670684309        0.05586888011199
H           -0.17180028239386       -3.38388830700169        1.77348834900693
H            0.36389097307865       -5.79450128297659        1.64718565605317
H            0.71256532327856       -6.86507515069258       -0.54746648209363
H            0.52239797523939       -5.53042807841831       -2.61390601669525
H           -0.01142643862401       -3.11848273613590       -2.47980247341301
H           -2.46909530938751       -3.34445724986565       -0.14461785620238
H           -3.00795167525532        2.56840921538797       -1.77054565091546
H           -3.00427101137326        4.92346898333575       -2.43666209104965
H           -0.97946590799853        6.30099925539469       -2.05047245337790
H            1.04225016042700        5.27612082269342       -1.14920675848521
H            3.17486661685168        3.49285132517263       -2.32658165197975
H            5.14185060270528        4.93623105935855       -1.92577095853349
H            5.55780420217435        5.85353571739733        0.32634861267312
H            4.00776466670851        5.33376583446304        2.17388492940891
H            2.04455591281988        3.88536867108485        1.76718562753989
H           -4.14680681323876        4.09980893719663        0.50715705777658
H           -6.35500103742426        5.20321956034458        0.78458046993125
H           -8.40340250202466        3.81612763199119        0.85799578972441
H           -8.24203456720756        1.38763041033741        0.71463481684937
H           -8.59067714086653       -0.46500255753778        1.36114946792826
H           -9.93645928782120       -2.48943090140904        1.55013188634258
H           -8.93436109627619       -4.69642199774551        1.04528753623786
H           -6.54318126427447       -4.82641584300830        0.39747898901109
H            3.57642539180818       -1.94879389577820       -2.22171383853351
H            4.18466969462557       -4.13945474067343       -3.15756528659093
