96
 energy: -152.924135343297 gnorm: 0.000056612357 xtb: 6.7.1 (edcfbbe)
C            7.37314288050280        0.97030153834343        2.48674336990737
C            7.77049163395555        0.23552085908754        1.38008179451794
C            6.84378486407699       -0.47380323954291        0.64167887949152
C            5.49613945752573       -0.46204665194506        1.00682402036978
N            4.55190529846922       -1.16772815939733        0.25383052599211
C            4.87812246243307       -2.41364051984557       -0.28916062964605
C            5.68030253228802       -3.30687284131293        0.42452107043666
C            5.99560835203941       -4.53963662932593       -0.11179057449991
C            5.51596699618304       -4.90670024515012       -1.35981960505559
C            4.71856612181380       -4.02435437528460       -2.07226466217219
C            4.40177357020463       -2.78708259064479       -1.54771357210204
C            3.28532904657211       -0.61867826346276        0.03900169522060
C            3.14160480549194        0.76383089334805       -0.12394313701069
C            1.88039696881389        1.31529828713886       -0.32570549650094
C            0.72802082910598        0.49667995239235       -0.36719829018013
C            0.89715295045944       -0.89728649006260       -0.20770215451508
C            2.16163348375524       -1.44569806074622       -0.00646173265181
N           -0.21532527125518       -1.71693975867868       -0.26732737810072
C            0.01403670097921       -3.12689265728230       -0.29321300642938
C            0.01774006356104       -3.86092979040702        0.88668090411006
C            0.26239671510685       -5.22232943083289        0.84729909967436
C            0.50401527373431       -5.85157201278581       -0.36336665149514
C            0.49769061511492       -5.11869750289406       -1.53854139153362
C            0.25492908318762       -3.75624493809298       -1.50699909374322
C           -1.51385813368538       -1.26092538485078       -0.22821958476399
C           -2.55423118093214       -2.19459841245978       -0.18144739371479
C           -3.86780297349630       -1.77191369551305       -0.02772499787708
C           -4.19248844509484       -0.41528094724987        0.13844157896481
C           -3.13393097431899        0.49673870790995        0.05906481177152
C           -1.80016776707374        0.13244372536809       -0.23622760681192
B           -0.64561072185511        1.10088293939475       -0.55329405328187
C           -0.63704240955292        2.56403233414335       -1.02994350470094
C           -1.71823326307182        3.22681275864082       -1.62730665819901
C           -1.66661177743784        4.56148927646291       -1.97333833684172
C           -0.50706226245798        5.29095423753193       -1.73866498935568
C            0.60855135419441        4.66082925984818       -1.22181966708060
C            0.57369835849638        3.29761630954160       -0.90449402401289
N            1.73935628466929        2.67929677982272       -0.48785897049246
C            2.90008610546134        3.48457705301944       -0.27657572148593
C            3.78258349634634        3.74072921171362       -1.31918241107998
C            4.91332710815510        4.50448252200152       -1.08875144383812
C            5.16509229749448        5.01205237109807        0.17579800791771
C            4.28292921420683        4.75781108463080        1.21273999459421
C            3.15020725394403        3.99365807143412        0.99077386601876
O           -3.35814547332871        1.82324437871122        0.27898694133470
C           -4.60770378761746        2.33482823450060        0.45465148592417
C           -4.62882671670165        3.72350097590951        0.58996781526404
C           -5.82982850965296        4.39081723439492        0.74230797924896
C           -7.01254868619289        3.66689231138523        0.75081693905338
C           -6.98354751885695        2.29011115261969        0.63079462642368
C           -5.79156913266134        1.56422824524360        0.49586592748232
B           -5.63133025603147        0.02550652939201        0.39032370569159
C           -6.62757734679421       -1.14900225982092        0.49278007534010
C           -7.99988169156872       -1.07708013190915        0.79373806657894
C           -8.81520758029342       -2.18633970811553        0.84044171553572
C           -8.29436967816108       -3.44990598550013        0.58450987932866
C           -6.94787776706170       -3.57795556082319        0.30381404957213
C           -6.12915555713773       -2.45270655866157        0.26528673776734
O           -4.81370498557926       -2.73557872640702       -0.00055873043561
C            5.10252864134178        0.27535729691195        2.12566864886298
C            6.03640868922901        0.98523988644739        2.85392081835093
H            8.10006827924478        1.52585023115333        3.05953049812616
H            8.80941144741177        0.22203520432993        1.08455729029432
H            7.15257710519177       -1.03521635412205       -0.22795566940965
H            6.04467977449441       -3.02775632598784        1.40230776800498
H            6.61353611569670       -5.22269665928252        0.45251551305116
H            5.76234142013456       -5.87261041740832       -1.77394251422140
H            4.34701100268992       -4.29892796968467       -3.04852292643093
H            3.79216727143485       -2.09551254230615       -2.11009524786749
H            4.02177524282728        1.38500431391004       -0.09039144345264
H            2.28833159914162       -2.50795730687498        0.12922324775407
H           -0.17276784126378       -3.35952322582760        1.82413990711318
H            0.26512463376231       -5.79188569992602        1.76463893762365
H            0.69484714133563       -6.91379465819615       -0.38996417004115
H            0.68319535557651       -5.60733366734303       -2.48322793471030
H            0.24765291359454       -3.17403943389558       -2.41640945781827
H           -2.36458037519699       -3.25373288351656       -0.24753179484819
H           -2.62282414931089        2.67041442787987       -1.81482145240570
H           -2.52937410806133        5.04211936048377       -2.41283607741790
H           -0.46404194317633        6.34288266505274       -1.98054409472413
H            1.51644599270804        5.22772360221614       -1.08265926827508
H            3.57537343264393        3.34000490168729       -2.30052317428437
H            5.59890419832725        4.70264614404233       -1.89901331899958
H            6.04882389508076        5.60640178752437        0.35229198857423
H            4.47584850303715        5.15362073967651        2.19846751017765
H            2.45550252170808        3.78723771303526        1.79146710971963
H           -3.68841385237802        4.25339853990417        0.55999188095646
H           -5.84160845876917        5.46623689953790        0.84381890418682
H           -7.95915658649882        4.17891103097997        0.85350319913772
H           -7.91965248166160        1.75504270916535        0.63141484499089
H           -8.43027471662858       -0.11249490328298        1.01021799688281
H           -9.86420934604579       -2.07578599988261        1.07776741333997
H           -8.92857256877149       -4.32344826152641        0.61299174676343
H           -6.50373460750583       -4.54415368591423        0.11266665955222
H            4.06339242148002        0.27796382336070        2.41978501105965
H            5.71970358671479        1.54862762803789        3.71934644139069
