96
 energy: -152.924305690760 gnorm: 0.000061160614 xtb: 6.7.1 (edcfbbe)
C            7.41431545767539        1.01781464027486        2.39535782945030
C            7.79299099838316        0.24359295203920        1.30927310352405
C            6.85252567722038       -0.48214970074734        0.60508504041900
C            5.50929003432022       -0.44820816122334        0.98507042716526
N            4.55080126501157       -1.16951152901904        0.26631746049864
C            4.86406532761074       -2.42896730821821       -0.25308620941213
C            5.66972500340773       -3.31115555865122        0.47014654063253
C            5.97226649902806       -4.55676046650582       -0.04351071137993
C            5.47565579588229       -4.94762471429867       -1.27757203518546
C            4.67435709935286       -4.07635317874441       -1.99920797418401
C            4.37052665061891       -2.82641334048078       -1.49755034530930
C            3.28379270334377       -0.62066931324696        0.05277033233474
C            3.14274391525720        0.75689447109963       -0.14769113764504
C            1.88138464742373        1.30699254345554       -0.35254354368387
C            0.72558903701783        0.49183621188981       -0.36114775091237
C            0.89225259394887       -0.89735114871534       -0.16231406123682
C            2.15680549514219       -1.44417811111135        0.04306178192221
N           -0.22210886056181       -1.71593537987761       -0.19094459144388
C            0.00351711035891       -3.12684669740595       -0.17623909647078
C            0.02546586210291       -3.82340083413513        1.02591217396018
C            0.26481647534972       -5.18637023489024        1.02520823380816
C            0.48275511823162       -5.85440181028888       -0.16901709063099
C            0.45821851135961       -5.15880564016977       -1.36642718846457
C            0.22079712437324       -3.79511070804407       -1.37361628474146
C           -1.52002773264077       -1.25704549466214       -0.16778613450322
C           -2.56089199841164       -2.18946512747256       -0.10087573369248
C           -3.87662002004051       -1.76236774759942        0.01968284813241
C           -4.19824585587583       -0.40156848919566        0.15260121690176
C           -3.13884787286417        0.50795160767352        0.06768755530930
C           -1.80370378147119        0.13601819761715       -0.21451852460843
B           -0.64777918212550        1.09524518846087       -0.55478825329278
C           -0.63859250587303        2.54792788124326       -1.06413671542547
C           -1.72421953663704        3.20296853105562       -1.66217308576826
C           -1.67130484201530        4.52917141050094       -2.03915300473466
C           -0.50514539927650        5.25787985195178       -1.83788208479799
C            0.61396418923956        4.63388425174629       -1.32133804091431
C            0.57650553320839        3.27897994022973       -0.97033599807084
N            1.74465926630223        2.66630420487744       -0.55214127189802
C            2.91239397666730        3.47138611432246       -0.38237586606702
C            3.78189914365995        3.68749682619178       -1.44481489640737
C            4.91860343834515        4.45373693317288       -1.25596571030336
C            5.18923404072752        5.00356898493878       -0.01315601412114
C            4.32046288213948        4.78852068683728        1.04375040809471
C            3.18198680610596        4.02190375197029        0.86346787804047
O           -3.36455467542382        1.83919988129384        0.25699369075297
C           -4.59060715245901        2.33587942103468        0.57817567922658
C           -4.59525438769740        3.71185926613054        0.81002044626883
C           -5.76634009762641        4.35382310504411        1.16755705812784
C           -6.93180857402642        3.61514543760408        1.30852955257908
C           -6.92188131301581        2.25304816736442        1.07373990412439
C           -5.76747693944024        1.56045735576343        0.68209657820758
B           -5.63754831798254        0.04529796270136        0.38725220496654
C           -6.66197161048581       -1.10355114126386        0.29459297183174
C           -8.06415738805648       -0.99340198834795        0.31328998090147
C           -8.89952517815846       -2.08605892518712        0.24031996191024
C           -8.36927249763256       -3.36775558729553        0.13867027253971
C           -6.99802904006478       -3.52766862080931        0.08694531633960
C           -6.16025052991473       -2.41786327302658        0.15140539323507
O           -4.82581644410970       -2.72256125873347        0.05958445344269
C            5.13476331307790        0.32795159003331        2.08415573247489
C            6.08219186076313        1.05459409233116        2.77751201356344
H            8.15206081409911        1.58666423637729        2.94060893133481
H            8.82819202983485        0.21206854434322        1.00235361257833
H            7.14726912358393       -1.07356768226397       -0.24937873880942
H            6.04743385958647       -3.01302751919246        1.43720267188813
H            6.59355928873169       -5.23102326405480        0.52764887763013
H            5.71209316535919       -5.92337382266025       -1.67405914551411
H            4.28942042227212       -4.36983826402610       -2.96472122586055
H            3.75778570786151       -2.14340511688584       -2.06708317990641
H            4.02526869934961        1.37558979847645       -0.14173654124895
H            2.28133906941735       -2.50267516308049        0.20713056226336
H           -0.14683141310678       -3.29233805215195        1.95046521865791
H            0.28167949437611       -5.72683151828921        1.95983970716334
H            0.66918667572443       -6.91775304853015       -0.16577680953092
H            0.62520571945783       -5.67772536207731       -2.29828357940141
H            0.19897900979054       -3.24178437219952       -2.30069050329844
H           -2.37031327571768       -3.24995065914044       -0.13360257246565
H           -2.63420082126854        2.64761138533784       -1.82387079230556
H           -2.53801458417111        5.00391094766646       -2.47736537653652
H           -0.45976615291818        6.30344773977658       -2.10558049993389
H            1.52652191945738        5.19905509708547       -1.20828963915839
H            3.55958216472955        3.25446272961267       -2.40897240456451
H            5.59416192129230        4.62110406517336       -2.08142096671383
H            6.07714111273848        5.60050180020175        0.13048865194114
H            4.52830786057815        5.21706681301006        2.01260713945454
H            2.49720101430771        3.84616350744766        1.67984591180526
H           -3.66529875119226        4.25068964052664        0.70548423337587
H           -5.76576505592159        5.41964956755893        1.34339689240676
H           -7.84977037121067        4.10497763248485        1.60206235994813
H           -7.83747691873962        1.69910233804788        1.20824565405383
H           -8.50197726810026       -0.00952058651747        0.37426674772008
H           -9.97167870403284       -1.94902777193282        0.26383823561612
H           -9.01824509287175       -4.22938937631263        0.08846519262023
H           -6.55054853212124       -4.50597965878232       -0.01249838109534
H            4.09934094917369        0.34783447981663        2.39041366877766
H            5.77971161332391        1.64853006315593        3.62745145103376
