  80
       -122.36821014
 C          0.6409560911        3.5027612184        1.1098147863
 C          1.9322578788        2.8461249648        1.5817971940
 C          3.1614028138        3.4557431890        0.9116820140
 C          4.4550981184        2.8821386131        1.4882592579
 C          5.7051204382        3.2945976446        0.7077177362
 C          5.9154352437        2.5340700615       -0.6073492467
 O          6.2979649849        1.1893168715       -0.3941660978
 C          5.3720611968        0.2039275470       -0.2274116469
 C          5.8734695776       -0.9843179311        0.3284372568
 C          5.0585625934       -2.0663803343        0.5727007929
 C          3.7118629106       -1.9836097796        0.2406152348
 C          2.5875466970       -2.8646761671        0.3956810481
 C          2.4248733897       -4.1455421431        0.9107550389
 C          1.1734276349       -4.7175758289        0.8914058250
 C          0.0696544518       -4.0527411616        0.3325392437
 O         -1.0946364324       -4.7587877679        0.3463210640
 C         -2.2440874909       -4.2076082267       -0.2649882310
 C         -2.9296394551       -3.1403696389        0.5940902358
 C         -4.0834814875       -2.4474197733       -0.1305603062
 C         -3.6381143197       -1.6481812617       -1.3555423087
 C         -4.7556142985       -0.7628207704       -1.9013907830
 C         -4.3100565886       -0.0037147847       -3.1455994172
 C          0.2151793399       -2.7757609486       -0.1956164029
 C          1.4673832325       -2.1853449402       -0.1218355380
 N          1.8608802524       -0.9368435202       -0.5819487815
 C          1.0192928492        0.0435253322       -1.0833475511
 C          1.3513742740        0.7808310913       -2.2197596532
 C          0.4525059225        1.7413422047       -2.6530144324
 N         -0.6962736532        1.9931073285       -2.0617353926
 C         -1.0268920620        1.3004093544       -0.9660648718
 C         -2.3370569461        1.6613663127       -0.3911163918
 C         -3.1063744695        2.6110373018       -1.0738845509
 C         -4.3654900732        2.9876749310       -0.6564983568
 C         -4.8998299780        2.4018565789        0.4751108153
 F         -6.1309606198        2.7381355547        0.8825629667
 C         -4.1743751814        1.4592636001        1.2053244740
 C         -4.7252017148        0.8419284477        2.3527849068
 N         -5.1731110191        0.3239989437        3.2705737336
 C         -2.8929279072        1.1139092790        0.7628260385
 F         -2.2251202959        0.2267677233        1.5189377077
 C         -0.1928243821        0.3185587490       -0.4448560371
 C          3.2251405779       -0.8080233427       -0.3660780454
 C          4.0339104171        0.2931006985       -0.5913203704
 H          0.6364770776        4.5603261245        1.3640870311
 H         -0.2205274841        3.0350376521        1.5815821329
 H          0.5342928782        3.4112822170        0.0315943144
 H          2.0193047348        2.9597990061        2.6642270536
 H          1.8986599444        1.7767015424        1.3640765831
 H          3.1056754526        3.2707520055       -0.1621399046
 H          3.1532691671        4.5386660247        1.0543058096
 H          4.3915751248        1.7942956546        1.5216387999
 H          4.5573235957        3.2320970144        2.5179176359
 H          6.5857346353        3.1173482501        1.3279247536
 H          5.6600751481        4.3617649132        0.4809918750
 H          6.7638092090        2.9764195901       -1.1390103813
 H          5.0366132548        2.6101821443       -1.2529802640
 H          6.9221573785       -1.0127855275        0.5768393953
 H          5.4562341612       -2.9602129553        1.0270602519
 H          3.2668341095       -4.6832469369        1.3175119577
 H          1.0087555548       -5.7055377688        1.2900930265
 H         -2.9180667067       -5.0575035153       -0.4044337256
 H         -1.9835477935       -3.8089859134       -1.2508029796
 H         -2.1967638055       -2.3962773709        0.9030012863
 H         -3.3073626517       -3.6168046141        1.5002677789
 H         -4.5668574390       -1.7707439765        0.5771116220
 H         -4.8240175126       -3.1900631118       -0.4333101047
 H         -2.7876047978       -1.0185333575       -1.0918852455
 H         -3.3193236808       -2.3276358364       -2.1472197254
 H         -5.0646963321       -0.0524052915       -1.1331481741
 H         -5.6206725320       -1.3831045512       -2.1441943490
 H         -3.4308407433        0.5993451698       -2.9311172186
 H         -4.0622037845       -0.6982479584       -3.9452891551
 H         -5.1011926369        0.6538275126       -3.4971665792
 H         -0.6031829213       -2.2567034599       -0.6627404095
 H          2.2626278529        0.5865315112       -2.7610328813
 H          0.6589235324        2.3369002307       -3.5327430558
 H         -2.6690135746        3.0457068437       -1.9577082574
 H         -4.9414799744        3.7206783233       -1.1974955590
 H         -0.4296438027       -0.2208485403        0.4535556322
 H          3.6175546216        1.1938369524       -1.0068337011
