  80
  -121.838720736700       0.437561418873826      !
 C          2.4091307303        3.4019903274        1.4164625225
 C          3.1058895986        2.1607577728        1.9606631525
 C          4.5839697271        2.1236979241        1.5790762176
 C          5.3008879853        0.9312869362        2.2110462034
 C          6.7366173546        0.7547066997        1.7112352642
 C          6.8616706589        0.1454774778        0.3090768142
 O          6.5865710394       -1.2413093851        0.2954164319
 C          5.3187853485       -1.7180337977        0.1474876574
 C          5.1655203813       -3.0767848413        0.4667756625
 C          3.9417213705       -3.7015414380        0.3892431214
 C          2.8385061486       -2.9704065322       -0.0337473307
 C          1.4386866855       -3.2630411529       -0.1671678987
 C          0.6714746578       -4.4041975347        0.0369309781
 C         -0.6837099896       -4.3436717255       -0.1886020217
 C         -1.2982854485       -3.1660984307       -0.6456564835
 O         -2.6395520273       -3.2486930749       -0.8286389124
 C         -3.3514673736       -2.0968540753       -1.2405504145
 C         -4.8424356980       -2.3947290597       -1.1257049201
 C         -5.2813040333       -2.4792172026        0.3338531321
 C         -6.7576065128       -2.8373153938        0.4706983519
 C         -7.1955921639       -2.8902708660        1.9323160841
 C         -8.6679260793       -3.2570672587        2.0711414354
 C         -0.5441982513       -2.0215456757       -0.8774105128
 C          0.8141825850       -2.0778458551       -0.6033682251
 N          1.7760157983       -1.0860933069       -0.7547303930
 C          1.5423500653        0.2181731976       -1.1596657852
 C          2.3742394483        0.8567603603       -2.0817278752
 C          2.0895338727        2.1677878264       -2.4229320793
 N          1.0563618334        2.8419134170       -1.9564650381
 C          0.2387846006        2.2305175451       -1.0988872600
 C         -0.9028028264        3.0383397345       -0.6360452791
 C         -0.7720846502        4.4254771153       -0.5454573446
 C         -1.8160046368        5.2273711420       -0.1272239037
 C         -3.0263337048        4.6455566174        0.2017035262
 F         -4.0419834336        5.4163218213        0.6121958904
 C         -3.2167749296        3.2651595768        0.1064217502
 C         -4.4556729382        2.6566657351        0.4173489992
 N         -5.4477164420        2.1459071748        0.6742212069
 C         -2.1375989738        2.4851557981       -0.3171605502
 F         -2.3455953507        1.1627285242       -0.4396300606
 C          0.4584214648        0.9350000057       -0.6493551888
 C          3.0077043949       -1.6218115051       -0.4050298847
 C          4.2318157184       -0.9809197739       -0.3061744672
 H          2.4884658559        3.4419020431        0.3324769295
 H          2.8625476182        4.3020646150        1.8255062757
 H          1.3541156093        3.3984271346        1.6826231554
 H          3.0152898633        2.1422928967        3.0487584112
 H          2.6121270791        1.2660858661        1.5738784078
 H          4.6659007166        2.0876699732        0.4909409159
 H          5.0661676989        3.0469489496        1.9084669000
 H          4.7347515035        0.0177175137        2.0246474699
 H          5.3268468628        1.0799828427        3.2929723948
 H          7.2735120348        0.0965275432        2.3969837157
 H          7.2411422351        1.7231262589        1.7080303647
 H          7.9061737153        0.2148178969       -0.0112275615
 H          6.2509055723        0.6888371704       -0.4170839105
 H          6.0416328758       -3.6113688515        0.7969115115
 H          3.8371251741       -4.7385748452        0.6670853768
 H          1.1330735621       -5.3209220048        0.3689492076
 H         -1.3132334707       -5.2044611013       -0.0297441141
 H         -3.0885246197       -1.8505543324       -2.2792460375
 H         -3.1007709251       -1.2435041060       -0.6004531964
 H         -5.0494954602       -3.3401324510       -1.6288872085
 H         -5.3955933442       -1.6031609137       -1.6332459374
 H         -5.0994815390       -1.5165825448        0.8164095111
 H         -4.6746390369       -3.2314335423        0.8399006244
 H         -7.3589072227       -2.0940745315       -0.0573198888
 H         -6.9409791439       -3.8073560977        0.0033578539
 H         -7.0191791296       -1.9162198101        2.3936262036
 H         -6.5862288781       -3.6246134184        2.4642229892
 H         -8.8605593133       -4.2344316234        1.6337749335
 H         -8.9586775950       -3.2858087295        3.1187917334
 H         -9.2914478543       -2.5256199187        1.5614157828
 H         -0.9945886914       -1.1252243400       -1.2680217423
 H          3.2008110795        0.3332125610       -2.5338905841
 H          2.7153488243        2.7068936027       -3.1220436108
 H          0.1770503292        4.8572017205       -0.8192423736
 H         -1.7078724634        6.2977370013       -0.0536469074
 H         -0.1647464675        0.4899082112        0.1073176665
 H          4.3159842928        0.0650366484       -0.5456934962
  80
  -121.838050293700       0.215240876718882      !
 C          2.4186667654        3.4217351114        1.2983223591
 C          3.2553306807        2.2554592827        1.8100169839
 C          4.6850317832        2.3017205232        1.2756839645
 C          5.5456162466        1.1847122403        1.8651439111
 C          6.9261651603        1.0773566804        1.2133149887
 C          6.9367883985        0.4143514052       -0.1698045197
 O          6.7578347392       -0.9864836832       -0.1005859643
 C          5.5199952916       -1.5541841384       -0.1150257233
 C          5.5023847072       -2.9199792511        0.2115290050
 C          4.3267684403       -3.6334853536        0.2623832992
 C          3.1335472794       -2.9868732876       -0.0361021099
 C          1.7529169574       -3.3828778344       -0.0225504285
 C          1.1000096620       -4.5802998428        0.2460913312
 C         -0.2728462935       -4.6216691158        0.1719859672
 C         -1.0192282290       -3.4890653298       -0.1909380364
 O         -2.3658323735       -3.6621302893       -0.2171354556
 C         -3.1885336598       -2.5305018322       -0.4304254475
 C         -4.6351692152       -2.9214241978       -0.1548990250
 C         -5.5641367938       -1.7213831252       -0.3124880146
 C         -7.0061959062       -2.0588341502        0.0526514423
 C         -7.9167068151       -0.8407313846       -0.0788658101
 C         -9.3444686502       -1.1508982722        0.3522571849
 C         -0.3822677332       -2.2901708347       -0.4909816061
 C          0.9988615346       -2.2461821513       -0.3761128962
 N          1.8632666989       -1.1859549351       -0.6240994098
 C          1.4996434395        0.0841471778       -1.0407851503
 C          2.2013882141        0.7441957131       -2.0525167938
 C          1.7986120435        2.0196980776       -2.4070878441
 N          0.7626092235        2.6382597669       -1.8740188571
 C          0.0656166572        2.0032634171       -0.9318373284
 C         -1.0946361694        2.7454084141       -0.4082838750
 C         -1.0536757701        4.1400111986       -0.3561331831
 C         -2.1243556695        4.8808048805        0.1052826516
 C         -3.2724737849        4.2281281500        0.5143708027
 F         -4.3146177019        4.9392662248        0.9635585860
 C         -3.3733895712        2.8359668276        0.4609060663
 C         -4.5503949087        2.1549763780        0.8497972698
 N         -5.4912325970        1.5828959372        1.1647955253
 C         -2.2678067405        2.1188454276       -0.0046290812
 F         -2.3884748630        0.7822717199       -0.0822237174
 C          0.4145976293        0.7441487638       -0.4604940351
 C          3.1616686981       -1.6300066203       -0.4136222620
 C          4.3388111281       -0.8997670837       -0.4418987395
 H          2.3830017888        3.4197820636        0.2112144938
 H          2.8456674932        4.3674164175        1.6245094592
 H          1.3996918628        3.3575755282        1.6744486463
 H          3.2791536776        2.2780812019        2.9016227383
 H          2.7897471419        1.3134926648        1.5100528254
 H          4.6565265987        2.2298380269        0.1864613154
 H          5.1328847793        3.2670968914        1.5226612134
 H          5.0254405833        0.2300069777        1.7762395205
 H          5.6799929198        1.3809019108        2.9313606180
 H          7.5793435101        0.4863836748        1.8581630813
 H          7.3600405381        2.0747444525        1.1163995864
 H          7.9324365213        0.5363667121       -0.6084729860
 H          6.2136894661        0.8833098064       -0.8428311557
 H          6.4460712600       -3.3879274455        0.4412479013
 H          4.3295388341       -4.6752244135        0.5422011268
 H          1.6625775743       -5.4612801187        0.5128928125
 H         -0.8150996929       -5.5284725833        0.3863055435
 H         -3.0835053974       -2.1753094313       -1.4648904700
 H         -2.8970707871       -1.7198241434        0.2475884455
 H         -4.7011364760       -3.3108816337        0.8619294624
 H         -4.9277827525       -3.7199167759       -0.8379586903
 H         -5.5248418458       -1.3655774971       -1.3441469578
 H         -5.2205381165       -0.9090529089        0.3294482014
 H         -7.3706567809       -2.8611033152       -0.5927186137
 H         -7.0389130959       -2.4200666538        1.0821816258
 H         -7.9159891980       -0.5014929859       -1.1170640068
 H         -7.5164992044       -0.0322395739        0.5337410323
 H         -9.3664868550       -1.4691306973        1.3922365408
 H         -9.9748771249       -0.2709743367        0.2496196946
 H         -9.7645942647       -1.9482739707       -0.2576904142
 H         -0.9405146350       -1.4297332006       -0.8164529876
 H          3.0192151041        0.2602121309       -2.5610316273
 H          2.3222690486        2.5733401807       -3.1753785744
 H         -0.1536657678        4.6273064387       -0.6950816664
 H         -2.0855555301        5.9574591796        0.1493631603
 H         -0.1103363835        0.2894984293        0.3620528754
 H          4.3185202704        0.1496847775       -0.6789568240
  80
  -121.837527993000       0.123848847636993      !
 C          4.5246587640        3.0613791484       -4.5854917763
 C          4.9138067819        3.0198897461       -3.1128961732
 C          5.2483306972        1.6020400910       -2.6564392019
 C          5.5734848947        1.5364090471       -1.1660192314
 C          5.8887751791        0.1103696316       -0.7226668787
 C          6.0720775806       -0.0033182462        0.7968610203
 O          5.8685137261       -1.3174187354        1.2734043450
 C          4.6098626555       -1.8419382135        1.2265764424
 C          4.5134255573       -3.2057067659        1.5406081536
 C          3.3010657896       -3.8586024741        1.5373527712
 C          2.1567832501       -3.1546967370        1.1819294576
 C          0.7665684428       -3.4983298987        1.0683173313
 C          0.0493477615       -4.6777316243        1.2295559449
 C         -1.3042371397       -4.6725428757        0.9846358738
 C         -1.9718311172       -3.5113197414        0.5585836547
 O         -3.3030217936       -3.6762851648        0.3451886183
 C         -4.0980710788       -2.6627461669       -0.2446355653
 C         -4.1755234418       -2.7994655064       -1.7699185161
 C         -2.9029656965       -2.3884646731       -2.5135662716
 C         -2.7349907681       -0.8734334745       -2.6199003001
 C         -1.3669917274       -0.4959352345       -3.1834057930
 C         -1.2381939115        1.0059108924       -3.4046560844
 C         -1.2715693220       -2.3198231747        0.4085040904
 C          0.0865788751       -2.3261424203        0.6815934400
 N          1.0040692035       -1.2905089905        0.5469147308
 C          0.7211244299        0.0126892042        0.1728766314
 C          1.5312966461        0.7026278872       -0.7328731128
 C          1.2219753535        2.0197687218       -1.0205421661
 N          0.1790956147        2.6568256480       -0.5233202762
 C         -0.6303688024        1.9898784437        0.2990616611
 C         -1.7978994276        2.7471510567        0.7848496508
 C         -1.6883687855        4.1221513056        0.9981323116
 C         -2.7572095666        4.8732307563        1.4470888903
 C         -3.9698843297        4.2514362562        1.6791899841
 F         -5.0094467048        4.9721441472        2.1187400427
 C         -4.1397430675        2.8828525527        1.4552662600
 C         -5.3864071257        2.2471799542        1.6643064240
 N         -6.3922607725        1.7248779828        1.8264944120
 C         -3.0354634105        2.1540475881        1.0070358141
 F         -3.2144167129        0.8444857430        0.7576401389
 C         -0.3855770023        0.6821489608        0.6984718847
 C          2.2633133923       -1.7901605177        0.8479365078
 C          3.4716192239       -1.1146016055        0.8996831465
 H          5.3393207802        2.6933268824       -5.2051243319
 H          4.2921973285        4.0781008067       -4.8921777261
 H          3.6502424208        2.4395887273       -4.7676041543
 H          5.7781418351        3.6658769685       -2.9461751591
 H          4.0911058784        3.4097626564       -2.5086559736
 H          4.3985138439        0.9488599829       -2.8688239878
 H          6.0993881947        1.2297938677       -3.2299374379
 H          4.7177842902        1.9141790157       -0.5998782669
 H          6.4238471738        2.1849937209       -0.9470312679
 H          6.7902648592       -0.2451628056       -1.2232561111
 H          5.0719997729       -0.5485491601       -1.0233481382
 H          5.4066501265        0.6984323499        1.3171201563
 H          7.0995425267        0.2361060932        1.0802223286
 H          5.4231202408       -3.7246790397        1.7959847803
 H          3.2407068211       -4.9026440217        1.8016733091
 H          0.5488036241       -5.5848854081        1.5316648324
 H         -1.8916950757       -5.5695169553        1.0973965666
 H         -3.7695023875       -1.6652100633        0.0515820247
 H         -5.0969052799       -2.8259300811        0.1724406856
 H         -5.0133843422       -2.1951130451       -2.1224171209
 H         -4.3963645024       -3.8454446328       -1.9909738813
 H         -2.9398501680       -2.8035149569       -3.5235269508
 H         -2.0352891669       -2.8236934234       -2.0169259350
 H         -3.5166017849       -0.4720407600       -3.2688829015
 H         -2.8578968643       -0.4074879095       -1.6418750928
 H         -1.2133915146       -1.0151912856       -4.1319624069
 H         -0.5886961026       -0.8312886136       -2.4940477916
 H         -1.3928019490        1.5474179868       -2.4746293299
 H         -0.2494381654        1.2557414488       -3.7826921830
 H         -1.9772717604        1.3490537637       -4.1250873946
 H         -1.7547613114       -1.4223945538        0.0668862507
 H          2.3649764459        0.2149750489       -1.2091916339
 H          1.8345993885        2.5966514096       -1.7006779958
 H         -0.7366766979        4.5869911805        0.7957754649
 H         -2.6668688869        5.9340687329        1.6185482300
 H         -1.0062226413        0.1977264604        1.4330414234
 H          3.5122536813       -0.0567991264        0.7066686680
  80
  -121.837472824800       0.116825707746018      !
 C          2.2973210161        3.5617553116        0.9413166045
 C          3.1574773035        2.4399346802        1.5102316714
 C          4.5564104444        2.4255372267        0.8979245038
 C          5.4519382606        1.3798222850        1.5613687012
 C          6.8054079976        1.2144121301        0.8663455082
 C          6.7670333302        0.4048024646       -0.4356555268
 O          6.6149160288       -0.9819093931       -0.2053929162
 C          5.3880785574       -1.5657043437       -0.1152943515
 C          5.4084370374       -2.8931457429        0.3429740299
 C          4.2501846245       -3.6184930830        0.5049317643
 C          3.0343094637       -3.0248139672        0.1887576996
 C          1.6631859554       -3.4443958915        0.2802458570
 C          1.0372583699       -4.6200037705        0.6796486261
 C         -0.3354418200       -4.6957767783        0.6275536538
 C         -1.1109163137       -3.6242860535        0.1548689304
 O         -2.4521105506       -3.8354561990        0.1369404665
 C         -3.2881961216       -2.8094948048       -0.3678907894
 C         -4.7393511017       -3.2520304196       -0.2068168404
 C         -5.6964723425       -2.4278108332       -1.0657195117
 C         -5.6697779478       -0.9348292087       -0.7443909715
 C         -6.7199378721       -0.1686891088       -1.5457223152
 C         -6.6569235058        1.3292664091       -1.2749308530
 C         -0.5025170420       -2.4450516265       -0.2584387065
 C          0.8778090465       -2.3614522198       -0.1602948032
 N          1.7107808975       -1.3104770724       -0.5228111962
 C          1.2896759046       -0.0727954558       -0.9812071693
 C          1.8969382603        0.5554934881       -2.0696246475
 C          1.4128551818        1.7916003453       -2.4638480003
 N          0.3929671065        2.4004705313       -1.8914400383
 C         -0.2052602975        1.8006810879       -0.8608011168
 C         -1.3339407516        2.5417067930       -0.2713029954
 C         -1.3551125686        3.9354539455       -0.3611890819
 C         -2.3845289727        4.6841675967        0.1745019409
 C         -3.4259279366        4.0397053168        0.8159447011
 F         -4.4230448320        4.7576427096        1.3486535611
 C         -3.4642123590        2.6470962385        0.9160692962
 C         -4.5296595512        1.9786753157        1.5631126663
 N         -5.3843037482        1.4277042249        2.0897033923
 C         -2.4086750521        1.9215777248        0.3571396655
 F         -2.4848132310        0.5812026246        0.4215543106
 C          0.2257285637        0.5811357007       -0.3559318592
 C          3.0232371064       -1.7084543361       -0.3144403104
 C          4.1830851816       -0.9645040506       -0.4571204757
 H          2.1987240338        3.4608918592       -0.1372437164
 H          2.7457939265        4.5295447112        1.1546865506
 H          1.3013764864        3.5412413193        1.3793111371
 H          3.2411543970        2.5621368625        2.5923372464
 H          2.6729729474        1.4783810187        1.3237628463
 H          4.4711940689        2.2342667040       -0.1737519367
 H          5.0120244851        3.4117201293        1.0138508007
 H          4.9381623407        0.4180988747        1.5932795870
 H          5.6284046140        1.6861374964        2.5949967764
 H          7.4927386959        0.7025362618        1.5425411853
 H          7.2216896848        2.1990684990        0.6437375640
 H          7.7403036544        0.4902399603       -0.9298609333
 H          6.0070249140        0.7882401019       -1.1219215021
 H          6.3687558189       -3.3209903318        0.5818299684
 H          4.2843776324       -4.6283023243        0.8827327820
 H          1.6202698430       -5.4601941010        1.0230338114
 H         -0.8551094724       -5.5883447763        0.9367571564
 H         -3.0649238695       -2.6439516342       -1.4315690497
 H         -3.1154220453       -1.8793568939        0.1825344971
 H         -5.0210459712       -3.1751659369        0.8437408243
 H         -4.8056632306       -4.3023037285       -0.4957674176
 H         -6.7096171684       -2.8049318138       -0.9131128012
 H         -5.4468091087       -2.5710163072       -2.1197700890
 H         -5.8500057929       -0.7839573142        0.3206459679
 H         -4.6848851944       -0.5292042516       -0.9762122089
 H         -7.7130956179       -0.5399895111       -1.2861723525
 H         -6.5659519083       -0.3519397519       -2.6119151799
 H         -5.6835263841        1.7268589661       -1.5583599921
 H         -7.4196337077        1.8558385462       -1.8436120292
 H         -6.8136745687        1.5283693679       -0.2176870096
 H         -1.0773905218       -1.6249520646       -0.6520413046
 H          2.7013915885        0.0783291468       -2.6052791300
 H          1.8575188349        2.3199840783       -3.2970553823
 H         -0.5347903947        4.4138403182       -0.8717628533
 H         -2.3920685587        5.7601669005        0.1048143671
 H         -0.2154478594        0.1473851137        0.5247438157
 H          4.1319145422        0.0558119875       -0.7953034165
  80
  -121.836851121200       6.050945321296256E-002 !
 C          2.3262946265        3.3828146443        1.4180282780
 C          3.0554502369        2.1586942851        1.9580396890
 C          4.5311384250        2.1547955345        1.5654707090
 C          5.2805735820        0.9853419925        2.2024241210
 C          6.7212130768        0.8470713063        1.7046375325
 C          6.8631322272        0.2259965429        0.3093750318
 O          6.6159683824       -1.1662179977        0.3108909516
 C          5.3594168218       -1.6701351754        0.1575739555
 C          5.2288334439       -3.0256585638        0.4998575259
 C          4.0187882577       -3.6762552229        0.4181309722
 C          2.9070480409       -2.9759002566       -0.0335739180
 C          1.5154465749       -3.3004703897       -0.1817001251
 C          0.7612873450       -4.4465909412        0.0437142194
 C         -0.5912304725       -4.4131891049       -0.2045309934
 C         -1.2165124110       -3.2637058131       -0.7170211387
 O         -2.5538482982       -3.3745207988       -0.9157890353
 C         -3.2639385054       -2.2921551917       -1.4898348584
 C         -4.7551263073       -2.5063522077       -1.2474338485
 C         -5.1452169364       -2.1212965645        0.1774973662
 C         -6.6321615257       -2.3243304307        0.4483858922
 C         -7.0216467945       -1.8174504157        1.8346264492
 C         -8.5067580108       -2.0121488631        2.1130247990
 C         -0.4728186310       -2.1180230516       -0.9748039645
 C          0.8772251677       -2.1397504028       -0.6596839051
 N          1.8187620060       -1.1290164245       -0.8106342057
 C          1.5434085486        0.1770880702       -1.1826898633
 C          2.3513196708        0.8738732498       -2.0829391166
 C          2.0130180870        2.1814282982       -2.3888368882
 N          0.9522387255        2.8004037300       -1.9080891382
 C          0.1595963130        2.1341344150       -1.0677949467
 C         -1.0133594212        2.8799498213       -0.5793935883
 C         -0.9450539347        4.2687613366       -0.4520660086
 C         -2.0197281927        5.0101608496       -0.0009253353
 C         -3.1981411767        4.3654035366        0.3272118013
 F         -4.2419710148        5.0776901676        0.7709113690
 C         -3.3268005919        2.9810398836        0.1959366194
 C         -4.5271807266        2.3008373969        0.5096123623
 N         -5.4832723289        1.7222777940        0.7608997403
 C         -2.2188983151        2.2640710332       -0.2635976108
 F         -2.3717386718        0.9384007063       -0.4237551717
 C          0.4318277660        0.8368961209       -0.6543917397
 C          3.0547898024       -1.6307060126       -0.4278434294
 C          4.2640267565       -0.9632809524       -0.3235682675
 H          2.3971839613        3.4236014522        0.3335835983
 H          2.7611946540        4.2936422943        1.8233373160
 H          1.2736079496        3.3543203930        1.6917020925
 H          2.9734522862        2.1407533606        3.0469027718
 H          2.5793180469        1.2521583081        1.5766223985
 H          4.6063113574        2.1115525722        0.4771492594
 H          4.9930623386        3.0920894342        1.8842445537
 H          4.7400850075        0.0557438903        2.0188961446
 H          5.3012706005        1.1387785478        3.2838155373
 H          7.2771943055        0.2124120423        2.3973509946
 H          7.1968547069        1.8300000607        1.6908411457
 H          7.9067705326        0.3134825237       -0.0092583276
 H          6.2431712714        0.7491104563       -0.4237080112
 H          6.1105726856       -3.5359679081        0.8526504814
 H          3.9306416120       -4.7093384663        0.7157613475
 H          1.2300467269       -5.3464016154        0.4102982327
 H         -1.2101405584       -5.2776293602       -0.0252585321
 H         -3.0449492934       -2.2482251074       -2.5665028869
 H         -2.9665682734       -1.3463031286       -1.0286481096
 H         -4.9934203645       -3.5545556815       -1.4307699173
 H         -5.3157054436       -1.8957555421       -1.9568938264
 H         -4.9008376680       -1.0696376222        0.3398853072
 H         -4.5593260359       -2.7169075831        0.8790506499
 H         -7.2102949639       -1.7832331879       -0.3033986222
 H         -6.8802039369       -3.3844169582        0.3615957105
 H         -6.7741921024       -0.7568501701        1.9048353565
 H         -6.4375558120       -2.3480210347        2.5899684727
 H         -8.7718334301       -3.0662809619        2.0617779407
 H         -8.7621978440       -1.6414158145        3.1028296605
 H         -9.1036109297       -1.4732771543        1.3805785968
 H         -0.9202190451       -1.2414683376       -1.4109209962
 H          3.1997822301        0.3978438423       -2.5468456960
 H          2.6164753784        2.7638010380       -3.0727627930
 H         -0.0187879657        4.7504309335       -0.7211337483
 H         -1.9601611061        6.0821272936        0.0994180628
 H         -0.1721993908        0.3449650092        0.0888033526
 H          4.3307135815        0.0794457868       -0.5821172991
  80
  -121.836372825000       3.647652973279966E-002 !
 C          3.6810131045        1.2426403950        4.2573970849
 C          5.1094704415        0.7123800098        4.2208770219
 C          5.4053558843       -0.0131272470        2.9109166297
 C          6.8395921075       -0.5351886002        2.8529855134
 C          7.1237386643       -1.3825958645        1.6112379662
 C          7.1350873525       -0.5854448549        0.3029122613
 O          5.8735271275       -0.0666392373       -0.0647459450
 C          4.8489795615       -0.9221590247       -0.3483154396
 C          5.0065729276       -2.2517885558       -0.7514551413
 C          3.9099337411       -3.0345256051       -1.0578025522
 C          2.6363668728       -2.5016636259       -0.9347431707
 C          1.3135951226       -3.0149358547       -1.1602446910
 C          0.8151133840       -4.2549181655       -1.5414278649
 C         -0.5475733426       -4.4372103424       -1.5965836300
 C         -1.4390795179       -3.4021665105       -1.2715821403
 O         -2.7565329909       -3.7349340953       -1.3386590487
 C         -3.7248228683       -2.7887190540       -0.9270701331
 C         -3.7397788278       -2.5797681198        0.5908138248
 C         -4.5311108081       -1.3342386169        0.9915452023
 C         -4.1083391995       -0.7916813903        2.3588329383
 C         -2.7861134533       -0.0275304868        2.2996310106
 C         -2.3583138243        0.4827945098        3.6693409367
 C         -0.9579679999       -2.1469660711       -0.9141583801
 C          0.4155219474       -1.9683695730       -0.8694237919
 N          1.1336220692       -0.8482158486       -0.4679099599
 C          0.5962068504        0.3319575683        0.0233063900
 C          1.0965249887        0.9197076093        1.1868241628
 C          0.5227571143        2.1009209267        1.6225912836
 N         -0.4908721522        2.6910914132        1.0204440359
 C         -0.9929110772        2.1239818573       -0.0767933639
 C         -2.1319758135        2.8426616319       -0.6756270528
 C         -2.2257240855        4.2256892113       -0.5020941912
 C         -3.2770972297        4.9556530904       -1.0202017553
 C         -4.2735545489        4.3005940951       -1.7194548489
 F         -5.2980453650        4.9996342444       -2.2249108658
 C         -4.2397834178        2.9164158553       -1.9035857179
 C         -5.2726532723        2.2370992839       -2.5916198386
 N         -6.1032236757        1.6769774064       -3.1459569324
 C         -3.1552927464        2.2114813276       -1.3740229652
 F         -3.1520959206        0.8762562980       -1.5352871396
 C         -0.4673786439        0.9605357810       -0.6263086786
 C          2.4827993555       -1.1663284483       -0.5014455644
 C          3.5759353233       -0.3661360297       -0.2351866285
 H          3.5113181469        1.9312685808        3.4319599135
 H          3.4895534199        1.7699948495        5.1890451663
 H          2.9681980691        0.4239445952        4.1766325551
 H          5.8067161066        1.5446597235        4.3380760821
 H          5.2647152273        0.0302175097        5.0598795877
 H          4.7137083764       -0.8524010169        2.7998433484
 H          5.2371171791        0.6714515204        2.0804529433
 H          7.0274115581       -1.1505421232        3.7368591019
 H          7.5344060498        0.3071785488        2.8839388887
 H          6.3764689523       -2.1757902421        1.5412229864
 H          8.1048980954       -1.8504006350        1.7161187622
 H          7.5494452422       -1.2018688873       -0.5057916939
 H          7.7656131378        0.3014440979        0.4111116164
 H          5.9930683552       -2.6761026480       -0.8487051177
 H          4.0467772389       -4.0514588864       -1.3917432829
 H          1.4866823130       -5.0659561291       -1.7760786623
 H         -0.9699692169       -5.3879778339       -1.8791471441
 H         -4.6773346887       -3.2021901460       -1.2670059024
 H         -3.5650558759       -1.8339185605       -1.4412902211
 H         -2.7103849087       -2.4842288577        0.9341635152
 H         -4.1593824984       -3.4638280853        1.0731350329
 H         -5.5960174342       -1.5712618031        1.0025238464
 H         -4.3808078894       -0.5533749298        0.2449622615
 H         -4.8817593918       -0.1166790499        2.7311017115
 H         -4.0217869589       -1.6180430061        3.0668522119
 H         -2.8947192711        0.8212892259        1.6214579926
 H         -1.9998721619       -0.6713345455        1.9021412392
 H         -2.2001106388       -0.3472472228        4.3544758911
 H         -1.4326960458        1.0483094147        3.5907285921
 H         -3.1221782783        1.1325462979        4.0900671578
 H         -1.6229484081       -1.3393639459       -0.6649335226
 H          1.8969112772        0.4552183356        1.7375740996
 H          0.8857892434        2.5974624145        2.5130692634
 H         -1.4454364166        4.7100631368        0.0629379306
 H         -3.3395039134        6.0239747300       -0.8880038901
 H         -0.8358267447        0.5616557598       -1.5557231511
 H          3.4843760217        0.6699538764        0.0466425832
  80
  -121.835105125900       9.537166078518417E-003 !
 C          1.7297841375        3.0563845321        1.2562683444
 C          2.7207716615        1.9952890780        1.7182413246
 C          4.0985198421        2.1874114044        1.0886502131
 C          5.1164581973        1.2003795509        1.6584578070
 C          6.4518127764        1.2032825612        0.9109666430
 C          6.4331675390        0.4602033598       -0.4304957482
 O          6.3463737992       -0.9417829398       -0.2660619855
 C          5.1438863161       -1.5716683028       -0.1504537027
 C          5.2121895285       -2.8766158097        0.3640872187
 C          4.0807162262       -3.6368967664        0.5547128875
 C          2.8450693068       -3.1036157721        0.2089963997
 C          1.4899110053       -3.5692523654        0.3145372660
 C          0.9018891559       -4.7412193274        0.7761704689
 C         -0.4671911310       -4.8675571639        0.7181073482
 C         -1.2762731687       -3.8576769120        0.1720484105
 O         -2.6080161009       -4.1402979526        0.1428744199
 C         -3.4962979062       -3.2208363266       -0.4606828926
 C         -3.8138551799       -2.0164660556        0.4313065352
 C         -4.6567765052       -0.9580246670       -0.2799141241
 C         -3.9425266788       -0.3100351292       -1.4663675633
 C         -4.6923244383        0.9119971480       -1.9908295661
 C         -3.9906175037        1.5227006944       -3.1980856500
 C         -0.7053883799       -2.6832848603       -0.3030286477
 C          0.6690869050       -2.5416673805       -0.1898409800
 N          1.4629655283       -1.4781893628       -0.5948979325
 C          1.0037667755       -0.2589935087       -1.0676464332
 C          1.5884689736        0.3649740673       -2.1695167180
 C          1.0669492226        1.5820551145       -2.5757020079
 N          0.0505071748        2.1787423325       -1.9896124059
 C         -0.5171093716        1.5977355810       -0.9266563784
 C         -1.6495507595        2.3512087473       -0.3546053365
 C         -2.0460666007        3.5236509124       -1.0088616743
 C         -3.1211937602        4.2803321493       -0.5929598364
 C         -3.8468499644        3.8661504358        0.5075483077
 F         -4.9085912326        4.5758564680        0.9122782051
 C         -3.4906039641        2.7132708655        1.2089295569
 C         -4.2425933296        2.2742630959        2.3238116930
 N         -4.8589402613        1.9027520775        3.2144890025
 C         -2.3834698837        1.9795763039        0.7694662394
 F         -2.0640450693        0.8971618688        1.4981903165
 C         -0.0659951468        0.3789616683       -0.4342700855
 C          2.7877430314       -1.8137610097       -0.3566600562
 C          3.9192170860       -1.0341057807       -0.5276018577
 H          2.0671753383        4.0471677316        1.5522984036
 H          0.7507822559        2.8834927953        1.6980233413
 H          1.6261284235        3.0411753800        0.1739888014
 H          2.8131080564        2.0377675215        2.8053581149
 H          2.3426148278        1.0046573456        1.4577730503
 H          4.0120627384        2.0670320147        0.0076993532
 H          4.4436155867        3.2070439008        1.2740904209
 H          4.6976724701        0.1938728914        1.6477561337
 H          5.3022060685        1.4625368473        2.7024350992
 H          7.2091482611        0.7249744710        1.5348414629
 H          6.7661753684        2.2325284765        0.7262812886
 H          7.3929516844        0.6154743510       -0.9332684265
 H          5.6448818929        0.8433477278       -1.0837695662
 H          6.1864983825       -3.2575949007        0.6245432022
 H          4.1505331804       -4.6264830920        0.9782296466
 H          1.5094917681       -5.5397463609        1.1719597214
 H         -0.9577833568       -5.7586421761        1.0750722518
 H         -4.4086830403       -3.7957680240       -0.6424022949
 H         -3.0943710412       -2.8978290066       -1.4264636480
 H         -2.8849555744       -1.5664252686        0.7788908718
 H         -4.3500016222       -2.3715880878        1.3129290015
 H         -4.9082002094       -0.1837684844        0.4478602139
 H         -5.5925855100       -1.4043774020       -0.6213828864
 H         -2.9391063474       -0.0052554116       -1.1670434258
 H         -3.8452666512       -1.0298359411       -2.2802879532
 H         -4.7696416285        1.6585875132       -1.1989688202
 H         -5.7069215917        0.6201554124       -2.2691321092
 H         -2.9676112105        1.7945668586       -2.9485834703
 H         -3.9650809013        0.8123351400       -4.0215172985
 H         -4.5121966012        2.4156903476       -3.5333203639
 H         -1.2953319620       -1.9081222511       -0.7595719688
 H          2.3983460293       -0.1008289839       -2.7063954673
 H          1.4799234253        2.1051792214       -3.4283528857
 H         -1.4679305766        3.8189560817       -1.8690477599
 H         -3.4100821489        5.1798751770       -1.1117104050
 H         -0.4896600658       -0.0817823600        0.4388909341
 H          3.8330570257       -0.0331384607       -0.9122707333
