76
 energy: -103.515736877792 gnorm: 0.000056017735 xtb: 6.7.1 (edcfbbe)
C           -5.92648499884134       -0.48151097888984       -1.43447932420802
C           -5.56381497707349       -1.55835365258074       -0.46114592604718
C           -6.55774334101882       -2.27783469018618        0.18605434453919
C           -6.24609795925293       -3.28499224060285        1.08307817101400
C           -4.92051832193116       -3.59145205717409        1.33232203455557
C           -3.91749522747856       -2.88063033934455        0.69701647898873
C           -4.21999859583814       -1.84679831516700       -0.18364269861595
P           -2.93813865093464       -0.91114573813032       -1.11120628656363
C           -1.39447040989550       -1.40225526136596       -0.19788104700618
P           -0.00246677991431       -0.35474757591491       -0.87212219827574
C            1.39872995220294       -1.39789423996779       -0.21145550076508
P            2.94077817554267       -0.87334953644542       -1.10858527616131
C            4.22622792842920       -1.83579962936732       -0.21381541444334
C            3.92915794034815       -2.89292140142205        0.64065039811906
C            4.93622660856591       -3.62199386578234        1.24834599794743
C            6.26026386711369       -3.31015590510975        0.99754897724456
C            6.56635709167185       -2.27803297756757        0.12740018769100
C            5.56834401399520       -1.53975255890679       -0.49170139691777
C            5.92461140475489       -0.43439596763899       -1.43496291116409
C            3.17402518289918        0.74783656970824       -0.26409895249909
C            3.47487611999413        0.80268337876445        1.09083131631663
C            3.65470545677756        2.01838208138837        1.72360925238735
C            3.54158619321718        3.19087915988646        0.99737949352309
C            3.24329547601403        3.14076069227184       -0.35277384093471
C            3.05227540351452        1.92837644951976       -1.00086178036451
C            2.72101203777728        1.88186624018858       -2.45998683049344
C           -0.00369028927384        0.98969704692144        0.38129617400824
C           -0.01838912493552        2.29988226721842       -0.07993502650380
C           -0.02390168052260        3.35964277923017        0.80742084558000
C           -0.01438657362910        3.12087810136904        2.16965487257128
C            0.00066040233421        1.81830133175865        2.63915029811563
C            0.00584530603952        0.75933392119814        1.75194105781436
C           -3.17262095119858        0.73692044041873       -0.32111842910031
C           -3.47118858531731        0.83746425049500        1.03168076345114
C           -3.65252494489473        2.07377763292985        1.62273318830265
C           -3.54343830017192        3.22096646898938        0.85654380351134
C           -3.24716452749536        3.12529943755077       -0.49160827256888
C           -3.05427321733381        1.89183994383751       -1.09802772346692
C           -2.72331625985843        1.79639894422485       -2.55488363179393
H           -5.24810609006322       -0.50430624362035       -2.28872899540077
H           -6.94777946971089       -0.60402443018435       -1.78809192549875
H           -5.83848704407573        0.49875302335225       -0.96374846566287
H           -7.59429713929136       -2.04918606327526       -0.02090179270696
H           -7.03467305722791       -3.83410127659580        1.57728857651755
H           -4.66410839063010       -4.38595922419009        2.01911988140330
H           -2.88922544690383       -3.14480254706821        0.89597208018787
H           -1.17918318910282       -2.44115780810370       -0.47180431850440
H           -1.49986967583143       -1.30620614475258        0.88613744331192
H            1.19483774657497       -2.43265208947235       -0.50922492586505
H            1.49817099836225       -1.32516179651163        0.87498202976290
H            2.90217924285519       -3.16116173890242        0.84087339732608
H            4.68425473961037       -4.43473154475653        1.91512614069802
H            7.05182950624893       -3.87396357326436        1.46996336558549
H            7.60155130989267       -2.04400738589693       -0.08029930297898
H            5.83493196976981        0.53161511367154       -0.93587143432596
H            6.94515176213354       -0.54330310326723       -1.79506457243969
H            5.24351735138918       -0.43463198305972       -2.28736954569189
H            3.57953517739711       -0.11538722810560        1.65463934379634
H            3.88589274878386        2.04948038046619        2.77899369320334
H            3.68443149901972        4.14524604718752        1.48380914170410
H            3.15508160349136        4.06096730848935       -0.91346127093557
H            1.84434647634741        1.25378763485471       -2.62333700424070
H            3.54772356158051        1.44922376139705       -3.02346080134587
H            2.52176388790759        2.87811508581805       -2.84704865231851
H           -0.02606532186069        2.48406143180273       -1.14418617375600
H           -0.03595767202426        4.37395029617740        0.43614833717202
H           -0.01868516481247        3.94595575811808        2.86726284900299
H            0.00836129574233        1.62649981590596        3.70328225499953
H            0.01741776536506       -0.24967367695136        2.14344157345600
H           -3.57295583377687       -0.06099354102075        1.62679263689973
H           -3.88188406305972        2.14052853503088        2.67683879474692
H           -3.68802657047843        4.19102307458649        1.31035013231408
H           -3.16179784666560        4.02584272375157       -1.08385707353605
H           -3.54461063078293        1.33311121035146       -3.10161313149329
H           -2.53658303244573        2.78036155116574       -2.97792020942921
H           -1.83891391857977        1.17378603932269       -2.69618583451785
