76
 energy: -103.402085749745 gnorm: 0.000064082134 xtb: 6.7.1 (edcfbbe)
C           -5.99592828389942       -0.51887886367226        1.24713023178861
C           -5.65843348396474        0.90816059547307        0.94974226226804
C           -6.66381420212324        1.81319408697810        0.64206137046113
C           -6.37664321193069        3.13986756706896        0.37093446709740
C           -5.06553816635890        3.57809667591878        0.41707902058483
C           -4.05089325036629        2.68692104670071        0.71901911582885
C           -4.32656493340070        1.34590849410749        0.96713906666276
P           -3.03914618050030        0.12368529894194        1.44459964655360
C           -1.48594768858200        1.05557800078396        1.02467643035025
P           -0.04352741855780       -0.08936235331372        1.31064683281708
C            1.29663045365258        1.20287427236392        1.04488774163724
P            2.58456073504822        0.56205000055551       -0.10596169829072
C            3.15391088504922       -0.97543152168904        0.58467299671376
C            3.01427797190724       -1.25418803557292        1.96695791871000
C            3.72311090476305       -2.28032487279928        2.53575869602497
C            4.57763857835712       -3.07142311221805        1.76643434759345
C            4.71166562114415       -2.81218931145961        0.40259525065643
C            4.01928667462301       -1.79009060995068       -0.20181406303418
C            4.11221343040211       -1.51746470679237       -1.66468907433355
C            3.73053081813048        1.97492103159724       -0.19442583252199
C            4.51466575319993        2.20860584424589        0.95460091773530
C            5.59463670444256        3.05389472252856        0.89025733393023
C            5.94801011086379        3.65524576782208       -0.31589761474210
C            5.19792659464577        3.39805762536851       -1.45831451848905
C            4.10086728298510        2.55983724761155       -1.42391608879932
C            3.25633136323911        2.33436564971942       -2.63860639829782
C            0.12014365488166       -0.86177497670391       -0.34460602542695
C            0.19455594544166       -2.24789736744761       -0.42463801516748
C            0.38053836454423       -2.87318851659022       -1.64207784695610
C            0.48725292422689       -2.11824892067286       -2.80378754604681
C            0.40300266436152       -0.73716924203711       -2.73800615995753
C            0.23201130471693       -0.10468669833262       -1.51796351571488
C           -3.09375183492237       -0.93190588359392       -0.06503661475101
C           -3.26850868328450       -0.35896941582816       -1.31894241649341
C           -3.30876930886172       -1.14690428545281       -2.45364198259419
C           -3.18161886125395       -2.52022708974681       -2.33769578054251
C           -3.01115042168434       -3.09505864160952       -1.09071275925555
C           -2.96241913006112       -2.31685319771311        0.05776616952479
C           -2.77502784929773       -2.94747141696038        1.40262454696092
H           -5.36900131753206       -0.89228710702890        2.05837981587186
H           -7.04125347689987       -0.62087718215515        1.53016925140163
H           -5.81277210613335       -1.14160880950610        0.37010036634728
H           -7.69043434033183        1.47396494022590        0.62058974856463
H           -7.17411292270129        3.82950374315923        0.13431196882801
H           -4.82991335512486        4.61477969218022        0.22136073942036
H           -3.03599516254023        3.05358062277150        0.76101001024727
H           -1.38398770754069        1.86444777920628        1.75791246684193
H           -1.49814836623956        1.45804352015869        0.00748127879778
H            1.75005161354890        1.49030580207487        1.99980598482294
H            0.89656673694514        2.11561990733850        0.58744111959115
H            2.35094539466752       -0.65618171092348        2.57520911306226
H            3.61372560444056       -2.48014601416376        3.59286889792542
H            5.12083919497076       -3.88601614987157        2.22042757141890
H            5.36282222454200       -3.43668256660304       -0.19426384731270
H            4.87248147947042       -2.13334881398614       -2.13902386576248
H            3.15100737708351       -1.70570184422072       -2.14657240915855
H            4.35957213832287       -0.46133530451035       -1.81900989456781
H            4.25167042096572        1.71941782023239        1.88398745485806
H            6.17704615165428        3.24585751953766        1.78095205264990
H            6.80388326936602        4.31128644806157       -0.36528135894009
H            5.47253068953574        3.86889068105680       -2.39288675929245
H            2.51120282542531        3.12603392705679       -2.73313508725973
H            2.72893840588445        1.38045182665174       -2.54955977960367
H            3.86028810704173        2.32969106848831       -3.54398145289295
H            0.12662921596715       -2.83126905920244        0.48251161052480
H            0.45184672325445       -3.95000313911604       -1.68988374273738
H            0.63047416615621       -2.60674125999952       -3.75662326277097
H            0.47664804173862       -0.14812412628592       -3.64176582486465
H            0.12387194482200        0.97235334150217       -1.49194688157635
H           -3.38616637414485        0.71337602856480       -1.40710415144767
H           -3.44182849269161       -0.69080567217753       -3.42436388025027
H           -3.21474455429142       -3.14388276992721       -3.21955715920485
H           -2.91242820592990       -4.16848656449602       -1.00732003705248
H           -3.70055932706902       -2.89834411805430        1.97671634353489
H           -2.48454504671441       -3.99083611371129        1.30642578218898
H           -2.00638563069899       -2.41433612082609        1.96363400481353
