76
 energy: -103.399648866166 gnorm: 0.000076237859 xtb: 6.7.1 (edcfbbe)
C           -5.99135114067196       -0.80140955222948       -1.22615129792746
C           -5.56040634117435       -1.80817835343942       -0.20668366434422
C           -6.50589993076474       -2.53461397775807        0.50214132861864
C           -6.12851532852346       -3.47796129705131        1.44234941315387
C           -4.78523939827267       -3.71123398060100        1.67556786691556
C           -3.82966557819822       -2.99123681305948        0.98011892718228
C           -4.19905506024579       -2.02261762249130        0.05235522751819
P           -2.98915533819528       -1.07751775170921       -0.95776891247906
C           -1.39596687865571       -1.45895615262992       -0.07566768716592
P           -0.05627456118999       -0.46521679595658       -0.90591772028794
C            1.38148807714483       -1.32664952428764       -0.06166409769443
P            2.92532777201118       -0.56886430082907       -0.72933215249128
C            4.16944775200178       -1.84655050517453       -0.48977207359700
C            4.08878577561786       -2.68477888061134        0.65594855023467
C            5.21267519789160       -3.30789889305224        1.13197198144078
C            6.44274046398221       -3.15806413569527        0.48991034373598
C            6.52882512564848       -2.35700161213074       -0.64959926324857
C            5.42523819845940       -1.71303374121796       -1.15499097672215
C            5.47737798264570       -0.90047186991492       -2.40263130885975
C            3.02236147518674        1.01166941344410        0.16810443446950
C            3.19896069666338        0.91857904255830        1.56337204161334
C            3.57131024577170        2.02468692946647        2.28794889409509
C            3.80340359552790        3.23744612190291        1.64906214455606
C            3.66860892846158        3.32164240549179        0.26785724351282
C            3.30018888767972        2.22631661178197       -0.48805783990353
C            3.14984147659840        2.34182618880811       -1.97335646179755
C           -0.07570845220225        1.07322922940147        0.09280389269943
C           -0.00622036347567        2.27532030701203       -0.60314961496661
C            0.01882883146097        3.48017277814131        0.07145415285892
C           -0.03251351282282        3.49855977404828        1.45438844523617
C           -0.11214689032463        2.30695742681187        2.15547577139257
C           -0.13313902432213        1.10184220759963        1.48195758000352
C           -3.26418244796819        0.59130399685716       -0.22651988569104
C           -3.54173184780778        0.73419533136214        1.12716398107684
C           -3.74035642051036        1.98707951995798        1.67620310608654
C           -3.66624500133677        3.10786905686913        0.86777193629410
C           -3.39402864850153        2.96945193876548       -0.48164390902843
C           -3.18878307120584        1.71872140729466       -1.04735107294657
C           -2.89661404329271        1.57517438901986       -2.50834513000780
H           -5.34821845035675       -0.85922260980617       -2.10578653623056
H           -7.02250070971368       -0.96996230133705       -1.52836250864162
H           -5.91015046752245        0.20772834950397       -0.81933972906880
H           -7.55616444670779       -2.36298442677783        0.30995809574548
H           -6.88023100110489       -4.03451797852809        1.98343016765377
H           -4.47843259947259       -4.45539585172705        2.39714522451882
H           -2.78647567508207       -3.19591351009227        1.17057108960343
H           -1.16568753413862       -2.51317849906686       -0.26749326801182
H           -1.45504831651792       -1.27052963050675        0.99982140492786
H            1.36660969429092       -2.38128659117845       -0.35494942466103
H            1.30205893936384       -1.22684423128345        1.02398849740046
H            3.14469258456180       -2.81723113287281        1.16331390182367
H            5.14104165044457       -3.93111973938710        2.01353527293318
H            7.31634395898051       -3.67209683736190        0.86021964220701
H            7.47809816377685       -2.26116442149845       -1.15935821228922
H            4.95975080020469        0.04914000112949       -2.22465292868610
H            6.50083386441969       -0.70540578696371       -2.71307893042822
H            4.95251622261443       -1.40850163821514       -3.21304760866456
H            3.03547860559404       -0.02893878698172        2.06059218004877
H            3.68057284500377        1.94800477754803        3.36128506787007
H            4.09067035186097        4.10728190567411        2.22040564039212
H            3.84938416338935        4.26573058345614       -0.22799665053247
H            2.64936153953029        1.45590609343242       -2.36842673356697
H            4.12627991769230        2.43721339360211       -2.45148896906272
H            2.56537682186396        3.22196998319650       -2.23328177658163
H            0.03369581760650        2.25411218637909       -1.68280110537340
H            0.07840693427694        4.40797054344144       -0.47898129217383
H           -0.01007947675733        4.43781060019111        1.98765547196832
H           -0.15422443812741        2.31792666619947        3.23580032601124
H           -0.19041879875919        0.18526671524587        2.05404520459202
H           -3.61315727167521       -0.14389672281278        1.75602081660955
H           -3.95353305231832        2.08796631789481        2.73098912489753
H           -3.82073701313586        4.09080361949711        1.28930404025119
H           -3.33860623620657        3.84944730470691       -1.10715393141671
H           -3.74157203533469        1.11312261260929       -3.01928519209619
H           -2.70353618523612        2.54319909474366       -2.96376933417570
H           -2.02791280432691        0.93187730976640       -2.65495896208916
