76
 energy: -103.514393242326 gnorm: 0.000036913039 xtb: 6.7.1 (edcfbbe)
C           -2.94466430082924        2.37864307765132       -1.62500792708709
C           -3.40698509813875        0.99151577877381       -1.94426345769226
C           -3.81185288553371        0.69881108440658       -3.24380550199775
C           -4.25852047184635       -0.56083450373641       -3.59203109722209
C           -4.31227514096601       -1.56023958716963       -2.63320940024593
C           -3.91138818071779       -1.28692022406226       -1.34064278060010
C           -3.45245324464666       -0.02061941009786       -0.98469839279336
P           -2.89996608664584        0.28582488749409        0.74808057128301
C           -1.41517663540262       -0.83124757276869        0.68501700086318
P           -0.18002080211400        0.11284649634356       -0.34594717728131
C            1.15372420853410       -1.18810678116828       -0.32311157774631
P            2.51740549081949       -0.62574030094081       -1.45468379395740
C            3.73897115105367       -1.98570722941317       -1.26564736481666
C            3.44511421396030       -3.20162293878955       -0.65693539972624
C            4.39016632203696       -4.21035457466021       -0.58956480891289
C            5.64315569765193       -4.01901129565361       -1.14331447127027
C            5.93691462299020       -2.82190609885006       -1.77347254763513
C            4.99951866313384       -1.80250916327141       -1.85242268938306
C            5.33664787365375       -0.51894228795426       -2.54351235282751
C            3.28416395382899        0.59319084720965       -0.30462509011549
C            3.94789229909903        0.16769339501816        0.83941273315282
C            4.51194458302721        1.08358887402872        1.70759977178645
C            4.41405271317673        2.43661328620375        1.43341372945006
C            3.75629352651706        2.86436010380145        0.29388508469484
C            3.18630229004984        1.95720229689379       -0.58858614648633
C            2.48933777602246        2.42594406138890       -1.82728292493066
C            0.38169326825474        1.27484359167226        0.96051659416112
C            0.19300816385668        2.63015581793301        0.71346940102210
C            0.54524435807390        3.57727449026479        1.65714654192278
C            1.09896778706826        3.17812697985954        2.86083660589975
C            1.29271656923009        1.83060981605110        3.11532381870670
C            0.93335497464399        0.88393508882209        2.17463099285883
C           -4.12960942447827       -0.76488617931498        1.61899956785199
C           -3.78524832163590       -1.92271288916058        2.30921116700137
C           -4.74019335922482       -2.65210233069230        2.99522580506705
C           -6.05558042722600       -2.22395637804482        3.00821117367995
C           -6.40357140959652       -1.06043758051445        2.34375124310052
C           -5.45722271391340       -0.31555063298653        1.65518851345907
C           -5.85520373559143        0.94025792627727        0.94560034807979
H           -3.74080505274391        3.09663772904922       -1.82038712470789
H           -2.65001928877733        2.45471331022571       -0.57980890632866
H           -2.09376559367278        2.64234595200044       -2.25152074439843
H           -3.77384514648222        1.47969845866261       -3.99076771819650
H           -4.56772540929502       -0.76533676002991       -4.60715493693180
H           -4.66667253019155       -2.54798862728510       -2.89242591292229
H           -3.96547404056941       -2.06577386239523       -0.59072134489821
H           -1.65288904372206       -1.78280970888234        0.19847377125041
H           -1.01995489468818       -0.99931608951823        1.69126194155133
H            0.70367635101583       -2.07793680415502       -0.78005523999983
H            1.50850064197143       -1.42182313465989        0.68502745351943
H            2.47014537965171       -3.37491338497056       -0.22555972618175
H            4.14472201714278       -5.14560339968008       -0.10608967654622
H            6.38650228099990       -4.80159413835027       -1.09240941847695
H            6.91224297386681       -2.67788096191928       -2.21787497423169
H            5.55500843783959        0.25899997250569       -1.81030153896570
H            6.20453077189614       -0.63943467152720       -3.18791464066719
H            4.49010667997195       -0.18196900411022       -3.14390406132871
H            4.03226641537546       -0.89108706739160        1.04812130387946
H            5.02583915970941        0.74184248841361        2.59500284660027
H            4.85082373076208        3.15916938654213        2.10786318872903
H            3.68415873030092        3.92266033331429        0.08521214871456
H            2.31813733211322        3.49891676876145       -1.79530436796229
H            1.53205666398389        1.91428568347873       -1.93469246017085
H            3.09052825371556        2.19536822656438       -2.70725156046265
H           -0.23378927136384        2.93699995291579       -0.23056637824149
H            0.38952901548489        4.62698060782119        1.45331669393891
H            1.38015447705110        3.91298725633403        3.60140944294636
H            1.72475891249756        1.51450587567163        4.05463392394205
H            1.09114055400722       -0.16217483406001        2.40035896247953
H           -2.76205805329514       -2.26933237930728        2.31412845619346
H           -4.45491069116228       -3.55329692629043        3.51977704446282
H           -6.80706677305995       -2.78998665463518        3.53969621824334
H           -7.42997424894961       -0.72044023527538        2.36431776146953
H           -6.79022237037550        1.33101027898266        1.34075677632632
H           -5.07736325792878        1.69799359274949        1.05270753312088
H           -5.98495438132525        0.74555382979393       -0.12011149735681
