  98
       -152.99956388
 C         -3.4988234568        6.6732549453       -0.3540844698
 O         -3.0147199633        5.6040354845       -1.1341363006
 C         -3.3769987636        4.3337396448       -0.7999258418
 C         -2.8766168384        3.3231219008       -1.6251272665
 C         -3.1497218925        2.0009578395       -1.3602202458
 C         -3.9254663922        1.6440301796       -0.2529628947
 N         -4.1288278492        0.2936926496        0.0559084608
 C         -5.3621403944       -0.1328112798        0.5460667166
 C         -5.4406142798       -1.1341856614        1.5118622800
 C         -6.6628633840       -1.5586513696        1.9987417473
 C         -7.8407665955       -0.9813353617        1.5343894268
 O         -9.0935052958       -1.3157979201        1.9454547643
 C         -9.2397473336       -2.3253461550        2.9162081768
 C         -7.7642642056        0.0276789407        0.5698543461
 C         -6.5476947882        0.4433809433        0.0812790655
 C         -3.0585408009       -0.5861622182       -0.0961056975
 C         -3.2697455885       -1.9249606318       -0.4696421408
 C         -2.2010023370       -2.7841874261       -0.7026027800
 C         -0.9139665807       -2.2923551704       -0.5734183886
 C         -0.6910866688       -0.9501447810       -0.1437880306
 C         -1.7641849979       -0.1046656817        0.1019078304
 C          0.7137687583       -0.7551190896       -0.1236127855
 C          1.5083414062        0.3538667255        0.1353950804
 C          2.8808582134        0.2659488456       -0.1009046753
 N          3.6688669273        1.4021065449        0.0680550903
 C          3.1049797810        2.6617295809       -0.1649557226
 C          2.1986149005        2.8495920021       -1.2076932016
 C          1.5803400394        4.0695998702       -1.4052313004
 C          1.8717330561        5.1447609134       -0.5703140778
 O          1.3162741691        6.3805947714       -0.6641592054
 C          0.3414667903        6.6143199339       -1.6562383580
 C          2.8078329890        4.9692746269        0.4532738404
 C          3.4108301253        3.7487150954        0.6572721382
 C          4.9929785014        1.3034335003        0.4952729366
 C          5.9628635184        2.1881221380        0.0154397603
 C          7.2668061117        2.0924333581        0.4418407208
 C          7.6499065018        1.1071537169        1.3568035425
 O          8.9634691018        1.1012400888        1.7076063340
 C          9.4165470573        0.1260675813        2.6171627540
 C          6.6873771615        0.2237355928        1.8364151968
 C          5.3759217330        0.3264981196        1.4123912340
 C          3.4504508829       -0.9427671810       -0.5406377367
 C          2.6696317019       -2.0711891847       -0.7575499210
 C          1.3042778518       -1.9812649922       -0.5495579678
 N          0.3047646049       -2.9019596231       -0.7807418474
 C          0.4815894345       -4.2058952431       -1.2458522210
 C         -0.2007788219       -4.5995797718       -2.4027903092
 C         -0.0151481051       -5.8606418270       -2.9335239885
 C          0.8390470219       -6.7611233312       -2.3167855956
 C          1.5176792339       -6.4157034504       -1.1317374531
 C          2.3590551728       -7.3323162751       -0.4735243183
 C          2.9772754653       -7.0042582108        0.7167031344
 C          2.7617506771       -5.7584253432        1.2894695655
 C          1.9529181426       -4.8283945103        0.6604683478
 C          1.3368918081       -5.1203854209       -0.5663962396
 C         -4.4507682571        2.6542246318        0.5472548484
 C         -4.1834891463        3.9861233749        0.2783576209
 H         -3.0993912097        7.5755556525       -0.8138637676
 H         -3.1456173854        6.6063834737        0.6798893967
 H         -4.5922335377        6.7145312311       -0.3653254706
 H         -2.2750636242        3.6029719435       -2.4752809039
 H         -2.7579135487        1.2287908033       -2.0036441291
 H         -4.5321831311       -1.5777872553        1.8897686924
 H         -6.6805943576       -2.3348312402        2.7470765099
 H         -8.8414465409       -3.2823535319        2.5643835528
 H        -10.3115733673       -2.4204018367        3.0809388747
 H         -8.7519802973       -2.0514662650        3.8572204764
 H         -8.6830098632        0.4648053056        0.2129260780
 H         -6.5028504261        1.2141614779       -0.6733037252
 H         -4.2780563710       -2.2799762985       -0.6098658597
 H         -2.3829842094       -3.8044141118       -1.0013021207
 H         -1.5965706843        0.9062758022        0.4361206104
 H          1.0678242083        1.2678436086        0.4990367901
 H          1.9703258822        2.0248627724       -1.8651389281
 H          0.8747983658        4.1696889352       -2.2140847345
 H          0.7458379331        6.4560408603       -2.6609414190
 H         -0.5420926722        5.9842970281       -1.5131414387
 H          0.0602585275        7.6602203948       -1.5454111615
 H          3.0327731170        5.8093410580        1.0907418590
 H          4.1130510168        3.6223444498        1.4672283760
 H          5.6828572974        2.9451018951       -0.7012466894
 H          8.0209591073        2.7687681991        0.0726271227
 H         10.4826584565        0.3103139692        2.7371908581
 H          9.2652673717       -0.8862507667        2.2290940160
 H          8.9212109220        0.2219264652        3.5886947366
 H          6.9425823035       -0.5448135365        2.5483843858
 H          4.6346572529       -0.3550768942        1.8003376242
 H          4.5080817496       -0.9809031033       -0.7459707339
 H          3.1193240661       -2.9855360416       -1.1104671614
 H         -0.8329078404       -3.8818664841       -2.9044220762
 H         -0.5287382422       -6.1396679455       -3.8421780869
 H          0.9859023455       -7.7460125934       -2.7342922846
 H          2.5057691986       -8.3084401138       -0.9132343998
 H          3.6209080097       -7.7207935503        1.2069051337
 H          3.2289099005       -5.5087089572        2.2316315522
 H          1.7899453116       -3.8684220341        1.1257853297
 H         -5.0581723253        2.3946050689        1.4013352820
 H         -4.5967662576        4.7390117782        0.9302552941
