  90
       -142.31636639
 O          8.2810094145        3.0349731180        0.1916030769
 C          7.9722006393        1.8678459771        0.1357237859
 C          8.8783950866        0.6908675896        0.0843573528
 C         10.2597908764        0.6577086395        0.0889085294
 C         10.8904133686       -0.5798734584        0.0334034240
 C         10.1525199064       -1.7526755206       -0.0251425486
 C          8.7621719585       -1.7288742578       -0.0299936521
 C          8.1318738626       -0.5016906872        0.0250819760
 C          6.7164855499       -0.1557272026        0.0357127794
 N          5.6845126784       -0.9508018299       -0.0035238539
 C          4.4758663366       -0.3325816263        0.0211974088
 C          3.3087155517       -1.1097522819        0.0023292780
 C          2.0664900816       -0.5196706953        0.0326146557
 C          0.8436904239       -1.3321387592        0.0819632555
 C          0.6184334399       -2.3634428070       -0.8255778069
 C         -0.5813595817       -3.0451777855       -0.8389046063
 C         -1.5866150828       -2.7195974138        0.0721798540
 N         -2.8385638674       -3.3316521463        0.0256100861
 C         -3.9743145543       -2.5514837153        0.2843906633
 C         -4.0408269082       -1.2381917501       -0.1816927554
 C         -5.1507405295       -0.4610858579        0.0833164550
 C         -6.2092142104       -0.9765929362        0.8132809157
 C         -6.1510713900       -2.2823181936        1.2722165033
 C         -5.0440514252       -3.0680198810        1.0131677262
 C         -2.9636037453       -4.6868599400       -0.2910673087
 C         -1.9945408544       -5.6003052057        0.1242283029
 C         -2.1195456140       -6.9391874001       -0.1910292484
 C         -3.2113502619       -7.3914735246       -0.9138409034
 C         -4.1787970470       -6.4891171521       -1.3247997786
 C         -4.0584012980       -5.1466649553       -1.0227618331
 C         -1.3312923672       -1.7389587567        1.0334658566
 C         -0.1388104687       -1.0545897805        1.0328458077
 C          1.9545265745        0.8997063485        0.0443941194
 C          0.6183154329        1.5174377023       -0.0231036794
 C         -0.2484927468        1.1948589447       -1.0654048087
 C         -1.5261063257        1.7089012943       -1.1069950194
 C         -1.9799742267        2.5459506901       -0.0877132824
 N         -3.2967471834        3.0188648541       -0.0826730477
 C         -3.8874547598        3.4640133657       -1.2662894006
 C         -5.2549147122        3.3018006175       -1.4921539713
 C         -5.8258330490        3.7488549664       -2.6677227768
 C         -5.0494842736        4.3565938592       -3.6405326717
 C         -3.6908224426        4.5181737641       -3.4237786045
 C         -3.1118174530        4.0816792095       -2.2486250591
 C         -4.0117818822        3.0036987558        1.1208429505
 C         -3.8425990509        1.9484784071        2.0175160586
 C         -4.5538398179        1.9218274580        3.2007451618
 C         -5.4415977692        2.9398437428        3.5089455805
 C         -5.6082496793        3.9927729512        2.6241816857
 C         -4.8986167766        4.0310073270        1.4393667469
 C         -1.1045516442        2.8957812571        0.9398883752
 C          0.1823343570        2.3984928876        0.9615613462
 C          3.0861099984        1.6762571334        0.0875873076
 C          4.3627427188        1.0899415877        0.0835079947
 N          5.4559903903        1.8889878683        0.1250829261
 C          6.6020920575        1.2713503340        0.1017570726
 H         10.8254541358        1.5758996789        0.1352851604
 H         11.9690867343       -0.6281247952        0.0357933414
 H         10.6666935447       -2.7015145148       -0.0685266901
 H          8.1831268296       -2.6379427338       -0.0756826934
 H          3.4121376053       -2.1841481720       -0.0071126946
 H          1.3750483210       -2.5989371756       -1.5598678484
 H         -0.7590287053       -3.8167272455       -1.5733327737
 H         -3.2162178726       -0.8334522811       -0.7498166117
 H         -5.1908163948        0.5503457374       -0.2900577597
 H         -7.0728587119       -0.3642095183        1.0229706434
 H         -6.9704270798       -2.6913673387        1.8446445628
 H         -4.9962247460       -4.0831725806        1.3792232068
 H         -1.1490899397       -5.2522333667        0.6994887386
 H         -1.3628823236       -7.6356647213        0.1387992307
 H         -3.3077295110       -8.4390081850       -1.1545073565
 H         -5.0311225311       -6.8313206694       -1.8929684227
 H         -4.8088369868       -4.4438429156       -1.3536842711
 H         -2.0865667908       -1.5145478654        1.7719013067
 H          0.0442929890       -0.3027597843        1.7847602804
 H          0.0858180799        0.5282218192       -1.8464197084
 H         -2.1907490460        1.4530361419       -1.9190358769
 H         -5.8685657785        2.8265762528       -0.7410032077
 H         -6.8857289347        3.6150863066       -2.8268744471
 H         -5.4994518737        4.7030784063       -4.5580937686
 H         -3.0766986706        4.9972789100       -4.1719505648
 H         -2.0542195554        4.2209051997       -2.0796020959
 H         -3.1595119683        1.1491454672        1.7719570260
 H         -4.4217996450        1.0939559863        3.8817426936
 H         -5.9983984536        2.9141207090        4.4331160530
 H         -6.2901517038        4.7959766780        2.8614847764
 H         -5.0232894760        4.8570074204        0.7545903401
 H         -1.4464450742        3.5555724767        1.7236525583
 H          0.8509779667        2.6706657637        1.7654390174
 H          3.0217662779        2.7535132944        0.1011002993
