  104
       -167.27177316
 C         12.5883015353       -5.4426450936       -0.5425762448
 O         12.8315074471       -4.2247551683        0.1240585961
 C         11.9114751646       -3.2324842269        0.0335591322
 C         10.7189411895       -3.3047077462       -0.6823516545
 C          9.8557573916       -2.2263748946       -0.7056574484
 C         10.1528203264       -1.0534453494       -0.0140727474
 N          9.2726483896        0.0307425964       -0.0397916965
 C          9.7704276545        1.3362462762       -0.0569402991
 C          9.1146297305        2.3547337831        0.6324678389
 C          9.5922522328        3.6505205209        0.6120410366
 C         10.7498138018        3.9595572913       -0.0983323313
 O         11.3064965270        5.1927540603       -0.1881508804
 C         10.6805951419        6.2720248009        0.4678898298
 C         11.4136425848        2.9372488369       -0.7845460539
 C         10.9331555349        1.6494116009       -0.7675268334
 C          7.8940003852       -0.1853190823       -0.0412915637
 C          7.3355207104       -1.2398082658        0.6849394022
 C          5.9726964536       -1.4391072865        0.6894177632
 C          5.1157377681       -0.5953014946       -0.0214985314
 C          3.6670720903       -0.7883930605        0.0031051356
 C          3.0995975609       -2.0773615730        0.0421674643
 C          1.7404605123       -2.2374819240        0.0740131744
 C          0.8730862470       -1.1330669937        0.0692178688
 C          1.4308501112        0.1607708398        0.0447533232
 C          2.8191317550        0.3045938395        0.0037046210
 C          0.6119794025        1.3664512694        0.0574208184
 O          1.1086385960        2.5071415689        0.0401448400
 C         -0.8204426113        1.1355943780        0.0785025891
 C         -1.6870575963        2.2405032181        0.0724885283
 C         -3.0463034101        2.0808473268        0.0929649263
 C         -3.6149755433        0.7919547539        0.1202091110
 C         -5.0642208596        0.6024412486        0.1192011256
 C         -5.6502824035       -0.4534431796        0.8229566760
 C         -7.0128804389       -0.6468977940        0.8135729107
 C         -7.8453144854        0.2094264551        0.0877835619
 N         -9.2252525639        0.0078038043        0.0636658760
 C        -10.0913711443        1.1033898757        0.0199472580
 C         -9.7966998806        2.2720055119        0.7293645708
 C        -10.6465363582        3.3508052193        0.6790821414
 C        -11.8225047899        3.3021890422       -0.0770181055
 O        -12.5862787022        4.4225994876       -0.0565627944
 C        -13.7818928195        4.4464445248       -0.8020868063
 C        -12.1219455533        2.1378213991       -0.7799907218
 C        -11.2639822494        1.0558102843       -0.7308764236
 C         -9.7417958215       -1.2904857652        0.0746914942
 C         -9.0953257682       -2.3187511136       -0.6087615784
 C         -9.5938058636       -3.6069042109       -0.5937670817
 C        -10.7629265207       -3.8977598040        0.1051188920
 O        -11.3402700984       -5.1221166589        0.1889685699
 C        -10.7225041359       -6.2121263466       -0.4565655536
 C        -11.4174784162       -2.8654019610        0.7850816751
 C        -10.9165278123       -1.5853366912        0.7731082871
 C         -7.2680836388        1.2688706047       -0.6166081457
 C         -5.9045457739        1.4595792410       -0.5959893932
 C         -2.7674202596       -0.3014458430        0.1274163509
 C         -1.3786248587       -0.1581431959        0.0990293245
 C         -0.5594727161       -1.3638308274        0.0918200431
 O         -1.0559365252       -2.5046837424        0.1120771251
 C          5.6834896958        0.4539982130       -0.7498089936
 C          7.0446984850        0.6555098456       -0.7655780198
 C         11.3498931745       -0.9852282514        0.7054704516
 C         12.2128036281       -2.0548984971        0.7257157996
 H         12.5148797270       -5.2995092973       -1.6251508757
 H         13.4466773163       -6.0738552305       -0.3200694473
 H         11.6779533465       -5.9263634027       -0.1750927618
 H         10.4538100953       -4.1923671614       -1.2344524172
 H          8.9404115326       -2.2886193799       -1.2753479969
 H          8.2229944651        2.1251530606        1.1964436626
 H          9.0564525528        4.4083577383        1.1610535306
 H         10.6532546501        6.1209463339        1.5516111250
 H          9.6640715399        6.4330599473        0.0956584581
 H         11.2899896684        7.1449877563        0.2409492277
 H         12.3056504317        3.1876143360       -1.3360565335
 H         11.4470630412        0.8737872237       -1.3151806104
 H          7.9807860881       -1.8869971758        1.2607123901
 H          5.5580897127       -2.2411596192        1.2811646488
 H          3.7430601068       -2.9443247637        0.0168575618
 H          1.2913983637       -3.2196141853        0.0931429667
 H          3.2082576336        1.3110298034        0.0024810329
 H         -1.2372955662        3.2223889903        0.0608499002
 H         -3.6891774246        2.9481669661        0.1176457600
 H         -5.0250500996       -1.1115258834        1.4062238637
 H         -7.4501256541       -1.4554717475        1.3802865015
 H         -8.8980019493        2.3184208995        1.3257406471
 H        -10.4278836477        4.2533623727        1.2269585591
 H        -14.2140349524        5.4304894395       -0.6297348945
 H        -13.5897598725        4.3178160912       -1.8719264178
 H        -14.4831670568        3.6783340946       -0.4614300213
 H        -13.0161418652        2.0633692168       -1.3782326746
 H        -11.4999212220        0.1626060642       -1.2903994766
 H         -8.1944836223       -2.1029006663       -1.1635450849
 H         -9.0646657745       -4.3731134933       -1.1376505448
 H        -10.6777136096       -6.0640044841       -1.5400762162
 H         -9.7138876575       -6.3884473464       -0.0701392086
 H        -11.3484081830       -7.0750816036       -0.2366602006
 H        -12.3182670724       -3.1023185178        1.3282512976
 H        -11.4228026105       -0.8012836592        1.3159736778
 H         -7.8991389023        1.9281262175       -1.1942221925
 H         -5.4759372422        2.2660658730       -1.1713389339
 H         -3.1567581963       -1.3077199369        0.1212817060
 H          5.0441533002        1.1007854035       -1.3304313097
 H          7.4678595932        1.4595535906       -1.3492486508
 H         11.5888909756       -0.0875541113        1.2555861763
 H         13.1351149999       -2.0112876690        1.2824587345
