69
 energy: -112.031177036850 gnorm: 0.000086975457 xtb: 6.7.1 (edcfbbe)
N          -10.50600619463863       -2.80576827951451       -0.59256430061795
C           -9.47374728118270       -2.31661764140422       -0.47935114293331
C           -8.20610875266542       -1.71591287457803       -0.34040990627263
C           -7.71030064063645       -1.40464188513195        0.92981195580659
C           -6.46908926888908       -0.82561011205643        1.06086820630897
C           -5.69005950675671       -0.52122965048831       -0.06467178852296
C           -4.38296978829195        0.10273653291191        0.08067983864371
C           -3.39554362756970       -0.49965415437940        0.92619836954857
C           -3.60985968789901       -1.73368915451706        1.54284909605628
C           -2.67756523540385       -2.27969166672169        2.42399930882684
C           -1.51784187534204       -1.59227818850756        2.70538639642197
C           -1.25141797516026       -0.38807949536755        2.05691869235327
C           -2.14149757889202        0.15057195599357        1.12429459735288
C           -1.83153780365160        1.33359139385574        0.38444387640487
C           -0.52755661849851        1.97577747622717        0.55119851400552
C           -0.43547432777361        3.31548891799061        0.94211249717934
C            0.79766721818528        3.92045186205020        1.10792514581077
C            1.96246861086078        3.21193909548578        0.88426930403654
C            1.88872589820465        1.87376837692270        0.49160533627901
C            3.10740692087773        1.13201739423073        0.26083289478821
N            4.31680604155528        1.60410404250917        0.35678591535082
C            5.13514583152079        0.55222286602398        0.06220313811881
C            6.55524379910741        0.47604654822320        0.00935289763227
C            7.35690592226413        1.58913651632665        0.27939178149844
C            8.72478252558642        1.48828338997946        0.22054367347220
C            9.30734681736630        0.26678057720385       -0.11101656411321
C            8.52857541305290       -0.83495692922899       -0.37842566129648
C            7.12735549391644       -0.77487912101343       -0.32879941597671
C            6.28609662647222       -1.92701374030523       -0.60652524769159
C            6.80939402679675       -3.18452624103203       -0.94093510709451
C            5.99426661459046       -4.26228658969992       -1.19904419356065
C            4.60762847567583       -4.13942208924569       -1.13632886119148
C            4.05197764406751       -2.92726268767884       -0.81286207767706
C            4.87193824942073       -1.82315322957216       -0.54800962521076
C            4.34602051434530       -0.55409102944896       -0.20849822857367
O            3.05145822885722       -0.18249658114924       -0.08174483968296
C            0.64935223197655        1.26332515639649        0.32938651588632
C           -2.78956558268050        1.89617605673908       -0.51475594531007
C           -2.48476074738439        3.00149431241935       -1.31296843090232
C           -3.44864085042210        3.60450060147664       -2.11854366926001
C           -4.73606287530598        3.11554033053749       -2.12807042646944
C           -5.05111634640510        1.97859685490315       -1.38515810524528
C           -4.08856233058537        1.31670667978893       -0.62065181602057
C           -6.20346140109872       -0.83244796578807       -1.33183551032966
C           -7.43612208452104       -1.42766824331223       -1.47180440956942
H           -8.31083918916869       -1.61847005916097        1.80197424328367
H           -6.09856885033199       -0.56524290757095        2.04166696825100
H           -4.51212531218081       -2.28667404144769        1.33120162347775
H           -2.87956161336687       -3.23282982980356        2.88879388721584
H           -0.80367969458386       -1.98490454032908        3.41340802201963
H           -0.33770208706024        0.13863759003004        2.28518678293991
H           -1.34200366813022        3.86856044692316        1.14064979864691
H            0.84765608994139        4.95352223996937        1.41866420942475
H            2.93307086663586        3.66397355294895        1.00638565732340
H            6.86692417637995        2.51670610292917        0.53177063310141
H            9.34786403433207        2.34530903689985        0.42831740382116
H           10.38338174417793        0.18322716359688       -0.15890253067403
H            9.02236866134949       -1.75966399574468       -0.63108496526455
H            7.87643163247270       -3.32627194679560       -1.00089080421988
H            6.43431695604047       -5.21539941876428       -1.45320928017676
H            3.97875223044370       -4.99286802050728       -1.34094986623989
H            2.98103090868849       -2.80028192031636       -0.75582059018811
H            0.60020185958607        0.23538217270712        0.00197375495678
H           -1.48072426764752        3.39709720137050       -1.31051283593448
H           -3.18143528756578        4.46194962542265       -2.71752463827512
H           -5.50353379343063        3.59649782795406       -2.71536559053207
H           -6.06593983336608        1.61192485222702       -1.40031822900550
H           -5.60093585843988       -0.63304429996753       -2.20602922375396
H           -7.81558912364087       -1.67975521238780       -2.45135359822603
