  69
       -112.09397203
 N        -10.4759780356       -2.8129773326       -0.5383886754
 C         -9.4477544014       -2.3152231731       -0.4390740948
 C         -8.1812835432       -1.7020016000       -0.3093264951
 C         -7.9294210470       -0.8380973598        0.7577638699
 C         -6.6899747054       -0.2442858096        0.8795088431
 C         -5.6875764928       -0.4940947396       -0.0560794510
 C         -4.3634313030        0.1471857858        0.0783148097
 C         -3.5070861949       -0.2374038451        1.1196339641
 C         -3.8605905203       -1.2588127922        2.0405944629
 C         -3.0296509471       -1.6084515346        3.0596886964
 C         -1.7933003313       -0.9529972134        3.2252459142
 C         -1.4072969824        0.0159836625        2.3514836400
 C         -2.2320281432        0.3943217860        1.2590586135
 C         -1.8348053672        1.3727890746        0.3362067480
 C         -0.5115729790        2.0170548757        0.4742176491
 C         -0.4139938011        3.3653302961        0.8101161640
 C          0.8263210281        3.9676491085        0.9447793191
 C          1.9818667845        3.2381434909        0.7475998245
 C          1.8967683062        1.8861920124        0.4120130662
 C          3.1086033124        1.1234864354        0.2169894695
 N          4.3225127427        1.5849330441        0.3086825847
 C          5.1312848356        0.5150541384        0.0555892278
 C          6.5508208701        0.4215841451        0.0186978487
 C          7.3624545462        1.5338652672        0.2608290943
 C          8.7295438218        1.4161554445        0.2185486005
 C          9.3012722930        0.1782694110       -0.0676602261
 C          8.5126421475       -0.9228569121       -0.3072212032
 C          7.1118151154       -0.8456827768       -0.2737911309
 C          6.2600951753       -1.9964551403       -0.5237189568
 C          6.7722351766       -3.2692208457       -0.8148384630
 C          5.9475088617       -4.3452307706       -1.0483993063
 C          4.5618279406       -4.2051551653       -1.0028747746
 C          4.0169688502       -2.9777756786       -0.7212651456
 C          4.8467106923       -1.8751828172       -0.4819140454
 C          4.3320057296       -0.5905170144       -0.1867114044
 O          3.0407964569       -0.2005082329       -0.0838927410
 C          0.6491960953        1.2818383359        0.2758868829
 C         -2.6853476298        1.7447459069       -0.7147335744
 C         -2.2995877464        2.7071716310       -1.6847974585
 C         -3.1440126800        3.0787721395       -2.6850272074
 C         -4.4313474994        2.5126281027       -2.7764992458
 C         -4.8307544248        1.5685406173       -1.8819116117
 C         -3.9728329672        1.1349634427       -0.8366764609
 C         -5.9485826124       -1.3562471759       -1.1194645634
 C         -7.1823763544       -1.9598634426       -1.2490788324
 H         -8.7079239123       -0.6402768404        1.4804566106
 H         -6.4898131581        0.4267561271        1.7020571026
 H         -4.8081846605       -1.7620550928        1.9168217492
 H         -3.3126770976       -2.3877115131        3.7517160575
 H         -1.1538370134       -1.2300441538        4.0501576400
 H         -0.4594826346        0.5166732248        2.4805688833
 H         -1.3172410876        3.9356744153        0.9722437771
 H          0.8875180636        5.0134388507        1.2069343258
 H          2.9572463248        3.6856067284        0.8485463157
 H          6.8805394476        2.4742716505        0.4786247464
 H          9.3603725198        2.2724891721        0.4047575016
 H         10.3766714191        0.0814348004       -0.1021356348
 H          8.9982786686       -1.8606507168       -0.5247834622
 H          7.8381479023       -3.4244013387       -0.8601470305
 H          6.3790852212       -5.3103500354       -1.2695933742
 H          3.9251944356       -5.0572681638       -1.1881800981
 H          2.9470662773       -2.8373897278       -0.6783856878
 H          0.5857188938        0.2369984455        0.0098271265
 H         -1.3135158387        3.1418516622       -1.6165486040
 H         -2.8359534114        3.8127356536       -3.4147464925
 H         -5.0958574286        2.8322154043       -3.5656189582
 H         -5.8174188984        1.1353057966       -1.9552247273
 H         -5.1708284478       -1.5539295984       -1.8426261245
 H         -7.3830066144       -2.6309126158       -2.0710790397
