69
 energy: -112.031178979690 gnorm: 0.000045919585 xtb: 6.7.1 (edcfbbe)
N          -10.49183427134518       -2.83268933469195       -0.30184187432254
C           -9.46145366360724       -2.32999957020256       -0.24538964697318
C           -8.19595532781128       -1.71292412311750       -0.17581434201577
C           -7.72105045039078       -1.21681736000729        1.04258168462776
C           -6.48142315722362       -0.62332778674920        1.10740329178447
C           -5.68330212201650       -0.48779707104588       -0.03754273090630
C           -4.37687974806371        0.15011714277780        0.03555135011154
C           -3.40439770968869       -0.32242146305847        0.97559752340695
C           -3.63289531764012       -1.45023194122409        1.76609084261346
C           -2.71501382656377       -1.86160057309683        2.73152462234635
C           -1.55533760335641       -1.14387329020327        2.92295721465331
C           -1.27421109475429       -0.05076428464116        2.10582897109805
C           -2.14974763174391        0.34609033092987        1.09188806813454
C           -1.82377323939321        1.40478937797222        0.18867711136625
C           -0.51518588044101        2.05409289347169        0.27198475731113
C           -0.41154317532302        3.43537204667539        0.46452289131784
C            0.82704688820146        4.04593204730581        0.55097394140814
C            1.98571302918742        3.30133215936207        0.44191488714286
C            1.90023549063104        1.92110849576750        0.24711757918242
C            3.11150981713643        1.14101571513213        0.13368160950528
N            4.32615849754190        1.60794686639287        0.16940970231287
C            5.13281991153457        0.51553180108128        0.03147773737912
C            6.55207327366433        0.41599742846002       -0.00230208028201
C            7.36650699132371        1.54646433398782        0.11297127781342
C            8.73323531692223        1.42228657138469        0.07603715538990
C            9.30184839521691        0.15956069613923       -0.07750639370324
C            8.51045811103645       -0.95958417957026       -0.19161728089490
C            7.10992448393177       -0.87666372662018       -0.15848986790853
C            6.25562287224817       -2.04648250552903       -0.27661571164397
C            6.76448260186879       -3.34440191467064       -0.42986755899979
C            5.93696585129576       -4.43797782180583       -0.53915869875412
C            4.55174713353025       -4.29135028320137       -0.50074196373668
C            4.01002649900465       -3.03948408775955       -0.35221023689308
C            4.84269897751400       -1.91893101542885       -0.24021356869128
C            4.33130747948753       -0.60871157298661       -0.08497647034090
O            3.04095310139175       -0.20804797867892       -0.01977199012495
C            0.65541722073341        1.30566775171250        0.16602807205752
C           -2.76792284990782        1.83307272616017       -0.79500966260637
C           -2.44833234075008        2.80931856456859       -1.74190904046454
C           -3.39910747599757        3.28967190544838       -2.64020163732094
C           -4.68805427184711        2.80669115999811       -2.59606667511710
C           -5.01745066833017        1.79150390202131       -1.69896065009379
C           -4.06788392286034        1.24728754708006       -0.83228218542215
C           -6.17624980471207       -0.98252930664258       -1.25342647780316
C           -7.40714007519053       -1.59340092046345       -1.32452201613110
H           -8.33627580637818       -1.30034697809249        1.92663886749456
H           -6.12699170409385       -0.22047880434206        2.04502573463544
H           -4.53483791940845       -2.02615998632091        1.62661905963801
H           -2.92805003914558       -2.73410479309140        3.33040911454980
H           -0.85237184206133       -1.42900649245620        3.69107834774585
H           -0.36042315110106        0.50075633959329        2.26477268316019
H           -1.31337315335022        4.02024384078079        0.57283966308970
H            0.88607267198262        5.11266296736241        0.70879305429888
H            2.96021812324993        3.75711107701142        0.50467231265084
H            6.88717038928648        2.50599236151487        0.23002970981522
H            9.36611718675963        2.29263266287016        0.16460491769699
H           10.37692695533910        0.05745792983906       -0.10749442352965
H            8.99364393402447       -1.91638358256121       -0.30915738289239
H            7.82987142313515       -3.50565022829835       -0.46448419315960
H            6.36605045650657       -5.42229874486722       -0.65604134749375
H            3.91307328319932       -5.15755647229621       -0.58736146396234
H            2.94055097066093       -2.89319614598764       -0.31863600059193
H            0.59718764274005        0.24142022990109       -0.00790267205524
H           -1.44293658126485        3.19923128920504       -1.78349502419950
H           -3.12067725393820        4.04976124477783       -3.35444438268973
H           -5.44564292161939        3.19758234468885       -3.25826923104411
H           -6.03327927278909        1.42810730593648       -1.67449371799699
H           -5.55917943551911       -0.91309895433834       -2.13740955192938
H           -7.77067421595789       -1.98750781022474       -2.26237908845969
