141
 energy: -199.927733527013 gnorm: 0.000094693842 xtb: 6.7.1 (edcfbbe)
C           -6.45914155922680        5.55162581756422        0.36100514694125
C           -4.98608448640429        5.59109587357930       -0.05452860714153
C           -4.92053202309823        5.95753459705569       -1.54432975418156
C           -4.28591014194333        6.67323546667568        0.77987159686721
C           -4.28243607227996        4.25966736097286        0.15777980775596
C           -2.92242469504848        4.15545209078022       -0.16230458910018
C           -2.20806366987139        2.98436650422487       -0.01544826386092
C           -2.87234304306108        1.87222740403243        0.47741780380801
C           -4.24399729462423        1.94878585266823        0.80302558845543
C           -4.93908231403755        3.13659163729225        0.64172106224382
C           -4.63409105816922        0.63229355743232        1.23389988124198
C           -5.83814573360405        0.07920168346850        1.63941372702882
C           -5.89373713461794       -1.26239576908934        1.99291406339310
C           -7.19198720116079       -1.95526708484510        2.37417523871411
C           -7.45434269485740       -3.07860852971893        1.36082732205034
C           -7.06934548981420       -2.54252513553689        3.78714084014482
C           -8.39402730580720       -1.00702194888432        2.35706530529210
C           -4.70819175462282       -2.00837375977332        1.99097881265292
C           -3.49665410521717       -1.48115633248141        1.59635350977171
C           -3.47382125572082       -0.16559339387432        1.15997924520087
N           -2.42019075651771        0.58391525284352        0.67858254959143
C           -1.21872988222823        0.05503729786289        0.18672523244635
C            0.00057025261840        0.63036269073964        0.60654976048001
C            1.21928630909929        0.05376616676618        0.18647604231566
N            2.42143252718015        0.58118541015230        0.67815758638113
C            2.87535654241507        1.86886021452388        0.47725132389604
C            2.21299864390324        2.98174264702397       -0.01651426876229
C            2.92885089386774        4.15206160185981       -0.16227101916721
C            4.28852003816128        4.25476798229476        0.15974428919325
C            4.99378893490075        5.58562142427040       -0.05075438093634
C            4.93080795639052        5.95316014184962       -1.54038764802366
C            6.46618107155480        5.54445016617159        0.36697470941503
C            4.29340065090384        6.66784493778241        0.78337187647268
C            4.94334393823350        3.13084571553345        0.64421708991316
C            4.24672903587794        1.94380858513762        0.80449593667579
C            4.63468755730803        0.62693133563744        1.23614018204656
C            5.83740513966901        0.07257548122104        1.64389187325634
C            5.89076669605408       -1.26889859587931        1.99825405531874
C            7.18752730340425       -1.96310628874983        2.38212789476591
C            7.06090625210368       -2.55223980909461        3.79396990759295
C            8.39021388782219       -1.01560915961616        2.36957954153554
C            7.45161911377078       -3.08524387838319        1.36788837276787
C            4.70437498265646       -2.01351024384193        1.99450886010683
C            3.49409322789543       -1.48497302981793        1.59780155505310
C            3.47351337704993       -0.16953683523052        1.16096600069831
C            1.23774363181085       -1.03530013612438       -0.66764673410249
N            2.44572815997434       -1.55063276332661       -1.14873804890922
C            2.91019276047850       -2.83749728977378       -0.96663568237725
C            2.25984795956348       -3.94407267227527       -0.44028286728014
C            2.97530922388742       -5.12022849945962       -0.32544855416246
C            4.31028370347115       -5.19752834135854       -0.71382660361104
C            4.96897614385311       -4.09406037201250       -1.22451043407386
C            4.27055171211702       -2.90370176747689       -1.35062005482589
C            4.63341155185653       -1.58725506231623       -1.79869148462295
C            5.80547956835088       -1.02304145886437       -2.27636132665782
C            5.79666504089405        0.30982363707356       -2.64719170706536
C            4.62873430149722        1.06497818591109       -2.58689322199936
C            3.44825309083654        0.52322631854416       -2.11570163894906
C            3.46979860499223       -0.79299333287948       -1.67805860736304
C           -0.00061818176166       -1.61628108804323       -1.13161274266293
C           -0.00097428835749       -2.55395281365399       -2.14096927323132
N           -0.00108537654601       -3.38606267675081       -2.95235958924268
C           -1.23847326725155       -1.03387823556936       -0.66763430343659
N           -2.44690840579737       -1.54788235396795       -1.14895784873891
C           -3.47057227102370       -0.78906688853796       -1.67746551978280
C           -3.44819909898177        0.52746060703486       -2.11414911904769
C           -4.62858479986325        1.07064515922977       -2.58392996829242
C           -5.79723154849430        0.31656530239518       -2.64389606887233
C           -5.80680632834734       -1.01669002495864       -2.27452095682069
C           -4.63482960467678       -1.58235025374600       -1.79832699832957
C           -4.27271352504707       -2.89951950202740       -1.35184062909370
C           -4.97179074345015       -4.08967158064384       -1.22731619547180
C           -4.31372802253581       -5.19417008182068       -0.71806996615700
C           -2.97876841157658       -5.11805634325469       -0.32938893722014
C           -2.26265148067848       -3.94215083548307       -0.44270828140880
C           -2.91228048583691       -2.83460957777862       -0.96790906315654
H           -6.56144009329885        5.30862869767599        1.41615597016463
H           -7.01345311245184        4.82535026368645       -0.22886680489295
H           -6.90794755785458        6.52918540228781        0.19649506772828
H           -5.43307235238020        6.90074708197612       -1.72114975492954
H           -3.89362740758610        6.05966260298823       -1.88397849870015
H           -5.40227698465722        5.18596895862111       -2.14150898611370
H           -4.79374898345932        7.62742956270131        0.65649157871370
H           -3.24946896505313        6.80000833779294        0.48037831281186
H           -4.30571432619990        6.40535437047082        1.83425985178002
H           -2.40146854982274        5.01855450341655       -0.54755367583745
H           -1.16537341584241        2.93665500661709       -0.28960029375763
H           -5.98668027353168        3.15921017727017        0.89026769803765
H           -6.71363662355342        0.70587967264436        1.66517436588230
H           -6.64724446695092       -3.80596676821758        1.35720290524473
H           -8.38200102228070       -3.59357057789515        1.60198094565158
H           -7.53734916486403       -2.66165595962485        0.35945973991650
H           -6.84177803013934       -1.75524319043959        4.50294568973670
H           -8.00584381030129       -3.01355708981689        4.07827881368969
H           -6.28350989601129       -3.29029293504771        3.84120385699067
H           -8.54473852633840       -0.58476137419920        1.36629619475134
H           -8.26622704573683       -0.19981276466288        3.07475853689002
H           -9.29305222459820       -1.55720105074276        2.62760865247414
H           -4.72824329056800       -3.04144879407386        2.30101231287569
H           -2.59800751956491       -2.07822903030381        1.62731634809855
H            0.00108591921667        1.39812094168410        1.36030907607679
H            1.17061227051320        2.93519804889198       -0.29203835604461
H            2.40936382075088        5.01578832051693       -0.54810417704064
H            5.41265545644325        5.18152628642133       -2.13739353168913
H            3.90451081249737        6.05657563136390       -1.88147945547276
H            5.44456223155597        6.89598034581643       -1.71577006800245
H            6.56664511935596        5.30064868862356        1.42211679111136
H            7.02069056642815        4.81804165612705       -0.22254699869150
H            6.91617088947188        6.52168875826009        0.20380922976547
H            4.31132153275358        6.39916246908989        1.83759113758532
H            4.80236820747837        7.62162597071673        0.66147971755565
H            3.25754474112522        6.79585399805549        0.48238363621448
H            5.99064922784457        3.15228976580402        0.89408457390034
H            6.71361585270561        0.69819230391372        1.67084776477507
H            6.27501633687062       -3.30016044583976        3.84489969675984
H            6.83130654166373       -1.76591416547326        4.51017587564558
H            7.99660857200222       -3.02361272085060        4.08710345385089
H            9.28799783868886       -1.56651826701796        2.64273565334371
H            8.54452697057489       -0.59277205357707        1.37961608672219
H            8.26047462230485       -0.20880627064249        3.08738919897075
H            7.53778961501398       -2.66697246163921        0.36733056289025
H            8.37809589692471       -3.60146995475640        1.61086217001270
H            6.64374500256222       -3.81173139651614        1.36104540059292
H            4.72269586437299       -3.04652120857516        2.30484623814819
H            2.59466172574028       -2.08090294190867        1.62769087093693
H            1.22715850407714       -3.89370038212626       -0.13372156667725
H            2.48895986141614       -5.99752851574994        0.07415428802388
H            4.83680453270787       -6.13484035669267       -0.61070508812687
H            6.00601774069323       -4.15488751089438       -1.51777014552159
H            6.70416495620521       -1.61520325642692       -2.36184962008844
H            6.70342867675946        0.76929625170478       -3.01162010160178
H            4.64175466954772        2.09324605696022       -2.91594032950255
H            2.53789415430976        1.10286822176312       -2.10092900657467
H           -2.53733870831393        1.10631697240722       -2.09960740669862
H           -4.64098290617860        2.09923699280223       -2.91198228961365
H           -6.70393994333841        0.77719868276322       -3.00699352604405
H           -6.70602316975681       -1.60805360452044       -2.35996073879915
H           -6.00883564619470       -4.14954946365693       -1.52074972752919
H           -4.84073708944810       -6.13135076127218       -0.61627651659375
H           -2.49291418230769       -5.99611547123688        0.06914123231461
H           -1.22997303291910       -3.89278157816144       -0.13597470037886
