141
 energy: -199.927682224841 gnorm: 0.000110987537 xtb: 6.7.1 (edcfbbe)
C           -6.45380750369135        5.53605106315151        0.18484177814775
C           -4.97817666448552        5.56101674724022       -0.22251497531375
C           -4.90334591908446        5.87393931276585       -1.72410222908627
C           -4.28321773718571        6.67256861687170        0.57678146972959
C           -4.27596839491705        4.23797048227889        0.04099340543960
C           -2.91411143228084        4.12317280709311       -0.26735398722902
C           -2.20159768913138        2.95696953306174       -0.07905236705099
C           -2.86969976247305        1.86158391246192        0.44491318422784
C           -4.24271945296216        1.94909687743186        0.76112168821449
C           -4.93593763971231        3.13169072187687        0.55808508103575
C           -4.63633652888894        0.64553856582043        1.22684976160939
C           -5.84344887355414        0.10509069189502        1.63990485125248
C           -5.90334436053836       -1.22691241718179        2.02728440166665
C           -7.20494470900701       -1.90700152880257        2.41993047876124
C           -7.09173014915635       -2.45314875477119        3.85005803234639
C           -8.40552938785010       -0.95817777746815        2.36771927497246
C           -7.46280325158071       -3.05883087518588        1.43792273760975
C           -4.71930936993512       -1.97501828975011        2.05005401071121
C           -3.50466428204686       -1.46036367647909        1.64844033044126
C           -3.47692811250602       -0.15598307951818        1.17988476662281
N           -2.41977224059300        0.57911327045181        0.68506788301812
C           -1.21786404960602        0.04006494843652        0.20428257688305
C            0.00093401792625        0.61974405346288        0.61991799201439
C            1.22090442471316        0.04757121518036        0.19699794667566
N            2.42225595945859        0.57791456630611        0.68664621229617
C            2.86396116406551        1.87360875707597        0.50915723421390
C            2.18941759573732        2.99210705380149        0.04547690102616
C            2.89295295157797        4.17299564765664       -0.07270479443806
C            4.25271390596670        4.28132443058022        0.24671825004903
C            4.94188972072406        5.62611538402358        0.07531010205628
C            4.86306621809761        6.04421774607542       -1.40009211843129
C            6.41789892639285        5.58733826452454        0.48028483859958
C            4.23591656813998        6.67072725580992        0.95172694831984
C            4.92114660425854        3.15113230727477        0.69672453634244
C            4.23669458524508        1.95370977533618        0.82968722725619
C            4.63923384695865        0.63150603235367        1.23035344115064
C            5.85024427959002        0.07903124589753        1.61554267588073
C            5.91775722677196       -1.26875652985245        1.94241732899054
C            7.22430526331854       -1.96106798717670        2.29521501774906
C            7.12084380727818       -2.58085511792334        3.69571858332096
C            8.41992639295481       -1.00462691174484        2.28660599530472
C            7.48279817965735       -3.05961804560111        1.25402368313705
C            4.73663416405739       -2.02167513187095        1.93846966015260
C            3.51848484353925       -1.49504444733599        1.56384428386593
C            3.48392420152226       -0.17269598346393        1.14918178452047
C            1.24064153813799       -1.03932847002116       -0.66057012690890
N            2.44775297865932       -1.53664639886348       -1.16186874981517
C            2.92943383464257       -2.82087379106391       -1.00669124046359
C            2.30075965757142       -3.94307851568984       -0.48694984827600
C            3.03116946915051       -5.11264992679040       -0.40309097436880
C            4.36002557874999       -5.16886046258672       -0.81534155415048
C            4.99763402235226       -4.04992075685310       -1.31897125822525
C            4.28400121603484       -2.86569317495049       -1.41378932148789
C            4.62531216109536       -1.53850522575922       -1.84659746525389
C            5.78375780523934       -0.95382192278423       -2.33295713096345
C            5.75487201084455        0.38453918324086       -2.68213633294705
C            4.57976744845294        1.12553216850464       -2.59219503907198
C            3.41260229744994        0.56317615622223       -2.11208189333052
C            3.45508401668201       -0.75944481479399       -1.69563858929466
C            0.00255453960826       -1.63299400862311       -1.10915954308150
C           -0.00463611577541       -2.57431068212422       -2.11506335582741
N           -0.01397467579853       -3.41022226659614       -2.92250352446255
C           -1.23602152004902       -1.05793127672495       -0.63731504649127
N           -2.44337082703529       -1.59339787820622       -1.09819927431192
C           -3.48100396918013       -0.86041071384090       -1.63481965327996
C           -3.47903213127053        0.44527377434590       -2.10343023365238
C           -4.67046886547237        0.96210368973623       -2.57498629647164
C           -5.82996953352758        0.19236263807615       -2.60579854302431
C           -5.81947251762490       -1.13156885253881       -2.20415694650213
C           -4.63632230151109       -1.67086534884593       -1.72531061949339
C           -4.25377937147167       -2.97213194618695       -1.24984358584499
C           -4.93626734422820       -4.16742742839740       -1.08805320909632
C           -4.25899689644858       -5.25028577845968       -0.55776828147576
C           -2.92132306364268       -5.14782651986354       -0.18481947230629
C           -2.22158235919245       -3.96618346219423       -0.33490030221589
C           -2.89080891320686       -2.88077557602797       -0.88112925539419
H           -6.56281898098429        5.33043910219819        1.24723805582927
H           -7.00440434619589        4.78930972184934       -0.38252678072234
H           -6.90148210853683        6.50711441990520       -0.01701106394095
H           -5.41428716190956        6.81037984677824       -1.93771764689756
H           -3.87435785362037        5.96345897045012       -2.06100217233549
H           -5.38186412578310        5.08171583099065       -2.29630573649296
H           -4.79035375544964        7.62156627430963        0.41606206272081
H           -3.24499233286685        6.78887496215165        0.27921652757305
H           -4.30944594371931        6.44274958552741        1.63996983159745
H           -2.39056614822215        4.97298808488781       -0.67781160405764
H           -1.15789321650010        2.89858692696640       -0.34734305761731
H           -5.98501619219654        3.16287311271312        0.79936940262454
H           -6.71794518592056        0.73364773083300        1.64460257662947
H           -6.86925836991293       -1.64536576250918        4.54430406664178
H           -8.02999901690230       -2.91608274197300        4.14841067518375
H           -6.30586292295367       -3.19848345598192        3.93091098582566
H           -8.54868699071490       -0.56392552412245        1.36435588404602
H           -9.30717292165452       -1.49939778102802        2.64747852744077
H           -8.28167275201946       -0.13114317585870        3.06318113503805
H           -6.65791523102898       -3.78822312237377        1.46189968832019
H           -7.53700105672151       -2.67101737709891        0.42423824721247
H           -8.39377062282788       -3.56401185737489        1.68692103276710
H           -4.74315855007796       -2.99996888837757        2.38577758914717
H           -2.60758411132037       -2.05861361112738        1.69750590880714
H           -0.00036355999079        1.38933857538286        1.37178933237023
H            1.14624939368157        2.94367885828432       -0.22610965272714
H            2.36273411506402        5.04133516559967       -0.43271429043620
H            5.34730887627068        5.29848780265443       -2.02729142248284
H            3.83311436430158        6.14948723313746       -1.72932021979387
H            5.36628989497443        6.99757631998385       -1.54665533185423
H            6.52934383287963        5.31122085679088        1.52631911248273
H            6.97514287664760        4.88593335419511       -0.13632527710300
H            6.85638098782407        6.57402509884146        0.34504766335223
H            3.19585115562716        6.79561249281154        0.66417162247294
H            4.26655637553352        6.36668298677216        1.99601089688738
H            4.73206575709936        7.63439823170639        0.85804480203649
H            5.96937060924197        3.17625596284207        0.94238666978586
H            6.72172887341389        0.71104974950185        1.64612816720498
H            6.34122465462975       -3.33566373258223        3.74104438082978
H            6.89515952495730       -1.81167493972755        4.43150781541466
H            8.06379838259109       -3.05127072677776        3.96627949911148
H            9.32520112184286       -1.55444876957295        2.53621204933474
H            8.55790444674375       -0.56017709151612        1.30371851251069
H            8.29411285715245       -0.21390814226213        3.02277326523855
H            7.55227312157376       -2.61974087058586        0.26146481570277
H            8.41623468230638       -3.57380733534013        1.47354241744301
H            6.68018619980115       -3.79186451985212        1.24262147211611
H            4.76556283180182       -3.05987958726448        2.23009630646957
H            2.62372235395217       -2.09792948995428        1.59359561800129
H            1.27285459371606       -3.91027612306783       -0.16272461940734
H            2.56130415797178       -6.00159297944766       -0.00960546780145
H            4.89847413391617       -6.10174595388053       -0.73658836133962
H            6.03007456399043       -4.09416834307877       -1.63084724726876
H            6.68740186481769       -1.53455669556805       -2.44145214412282
H            6.65091412800926        0.85992412823318       -3.05260169518367
H            4.57662488830324        2.15902235325436       -2.90473312837784
H            2.49641626569349        1.13256259222403       -2.07455888819671
H           -2.57541929598707        1.03546519610695       -2.11128086227919
H           -4.69881154480101        1.98214176920268       -2.92780253850359
H           -6.74566923006142        0.63268757424989       -2.97153912887038
H           -6.71188904973760       -1.73593956695602       -2.26715964039022
H           -5.97537565639233       -4.24786115187461       -1.36901117660247
H           -4.77297421089115       -6.19106927599782       -0.42672297870898
H           -2.42058102648156       -6.00938580436283        0.23098877341543
H           -1.18687259952559       -3.89486653310681       -0.03914144276979
