141
 energy: -200.015807234188 gnorm: 0.000055249282 xtb: 6.7.1 (edcfbbe)
C           -6.46472791916314        5.52340242207007        0.14801145256315
C           -4.98178109124004        5.55900852349478       -0.23089595313251
C           -4.88074837259904        5.88012735145807       -1.72899887416559
C           -4.30888973454729        6.67028425499007        0.58699710597635
C           -4.27768989268502        4.23759640676320        0.04048438799326
C           -2.91116444935165        4.13043020722202       -0.24556130694644
C           -2.19494803866889        2.96743112968008       -0.04650162049943
C           -2.86519962826720        1.86918264788110        0.46299872488870
C           -4.24141979715348        1.94689021142070        0.75445589508984
C           -4.93816803942310        3.12830662534974        0.54356397230726
C           -4.63926024384446        0.64306581372423        1.21203584571034
C           -5.85330083305417        0.10384468853081        1.61305936010317
C           -5.91950859294564       -1.22483160705878        2.00081511180450
C           -7.22515411336411       -1.90175428196212        2.38905185073610
C           -7.12168667431102       -2.43801887948055        3.82347690476118
C           -8.42356861590909       -0.95111028975583        2.32304790466977
C           -7.48018919118029       -3.05957811197332        1.41391797022375
C           -4.73776662290241       -1.97531321207610        2.03359550605844
C           -3.51727017485132       -1.46175084708108        1.64722881612500
C           -3.48299949739379       -0.15863484078347        1.18214078877357
N           -2.40989868392005        0.58417736586802        0.71724693023435
C           -1.21299908990839        0.04598837210204        0.23713265136886
C            0.00131052247687        0.57658405849842        0.65454860901301
C            1.21580150273299        0.05260490798132        0.22918185000434
N            2.41296023203675        0.58115874058222        0.71677134154817
C            2.85938136534965        1.88065149941620        0.52710598469931
C            2.18265331318162        3.00124374976296        0.07826875647327
C            2.88992633087600        4.17971353893699       -0.05009987382568
C            4.25426187364565        4.28187328369108        0.24739489663759
C            4.94542202076837        5.62575885038691        0.06956593037198
C            4.84538359598101        6.05033215039664       -1.40247033648966
C            6.42746056990415        5.57930699985961        0.45095156742062
C            4.25807333078228        6.66953939164929        0.96124413772155
C            4.92326239531216        3.14917339075699        0.68236332070453
C            4.23527394942612        1.95236251952393        0.82235704562301
C            4.64241508973058        0.63006240347342        1.21387523964965
C            5.86039567311652        0.07984347613191        1.58716088496723
C            5.93474333755173       -1.26475632247630        1.91394456656076
C            7.24556941818294       -1.95315211828667        2.26235376070201
C            7.15158890542940       -2.56513630454504        3.66677564821317
C            8.43827706857785       -0.99332183870396        2.24195710991732
C            7.50248136719391       -3.05650147289133        1.22637537611905
C            4.75632230597009       -2.02100001954760        1.91927503978407
C            3.53222837150235       -1.49655084190406        1.55985237906210
C            3.49059759762102       -0.17549548655441        1.14900436592212
C            1.22525907972483       -1.02047577342370       -0.68299925019080
N            2.42522873556761       -1.53283519888173       -1.17852513572322
C            2.89722142105437       -2.82540781313777       -1.00599764922731
C            2.25365891812986       -3.94035948291412       -0.49511810852473
C            2.97417680028703       -5.11567465653589       -0.39836005176026
C            4.30741259790929       -5.18285709869911       -0.79158918113358
C            4.95923105050656       -4.06934986035300       -1.28337874043418
C            4.25532638973326       -2.87829462523034       -1.38784200975772
C            4.61757272605676       -1.55458755988918       -1.81320614680313
C            5.79266179744822       -0.98592847013338       -2.28280031099155
C            5.78910367388650        0.35197380515288       -2.62643115672122
C            4.62463689355558        1.10996615249343       -2.54817819301470
C            3.44139393736219        0.56287133698389       -2.09014317735735
C            3.45997742814247       -0.76008534856363       -1.67946937559713
C            0.00099627958109       -1.55339601649879       -1.11143609406531
C           -0.00613484593351       -2.55500092345101       -2.11149754467916
N           -0.01648524444562       -3.33764636789270       -2.94842434701107
C           -1.22284246027903       -1.03799035473171       -0.66012963841525
N           -2.42264219905480       -1.58734624997877       -1.11656599433352
C           -3.48573124729973       -0.85727413588492       -1.62079159082648
C           -3.50575655466083        0.44805892330399       -2.08410259607951
C           -4.71130143188794        0.95096220515394       -2.53449462587188
C           -5.86036874582580        0.16609604173973       -2.55364454852652
C           -5.82658260200448       -1.15648194692423       -2.15655723161034
C           -4.62851673495734       -1.68102385570017       -1.69382123825608
C           -4.22713450265110       -2.97854687299395       -1.22511891053704
C           -4.90062399613984       -4.17950991530490       -1.05386324215154
C           -4.21100707802778       -5.25751297303849       -0.53514857995587
C           -2.86973227395034       -5.14599676199060       -0.18096803552953
C           -2.17910055679805       -3.96014315363695       -0.34389040196176
C           -2.86152214463332       -2.88127468238570       -0.88093060856393
H           -6.59244535173090        5.31363818455049        1.20748884370274
H           -6.99909255589306        4.77431959243225       -0.43167685103540
H           -6.91511181935806        6.49207539957888       -0.05956864754616
H           -5.39368995438656        6.81424348185970       -1.94828464160339
H           -3.84610175084781        5.97812584115132       -2.04580640281349
H           -5.34284430088358        5.08752876921394       -2.31412256085169
H           -4.81712017665669        7.61786353855761        0.42092683977675
H           -3.26542833360037        6.79268951155798        0.31066347535717
H           -4.35492860267537        6.43508376775086        1.64835758016752
H           -2.38416520824679        4.98326719743254       -0.64548558007711
H           -1.14624463415746        2.92067274900016       -0.30016834765861
H           -5.99075715730135        3.15151540274047        0.76975413378066
H           -6.72529129358488        0.73580706599729        1.60892170931224
H           -6.90265083993095       -1.62552903726194        4.51334880662870
H           -8.06190124160812       -2.89849547736020        4.11983495036514
H           -6.33646063351372       -3.18303357441432        3.91415876943796
H           -8.55765839268178       -0.56142342951330        1.31665110428678
H           -9.32858941014589       -1.48897940686045        2.59865618164052
H           -8.30302322265819       -0.12075316771905        3.01508531330885
H           -6.67714930496400       -3.79064999471105        1.44803518450121
H           -7.54731511200217       -2.67824147701682        0.39729470443703
H           -8.41385850808586       -3.56121754932704        1.66039769269808
H           -4.76628920727378       -3.00094531017871        2.36731976347477
H           -2.62330614188075       -2.06472035469345        1.70583082313904
H            0.00054636404312        1.38075622378042        1.37478618368394
H            1.13459463455253        2.96357957177556       -0.17870799066671
H            2.35629708057162        5.05044417943338       -0.39947066422500
H            5.31781012858441        5.30583279678430       -2.04013537162914
H            3.81068802619184        6.15957108207303       -1.71535960803976
H            5.34877302324149        7.00300855780076       -1.55337652292422
H            6.55391754849175        5.29830221740112        1.49395707739810
H            6.97162061203146        4.87755938003054       -0.17686050924142
H            6.86825654504118        6.56460611299781        0.31263924852756
H            3.21400807685390        6.79953743780669        0.69070931863413
H            4.30388530500764        6.36072531517714        2.00359496304379
H            4.75620750139716        7.63192487042520        0.86406858434552
H            5.97512077467698        3.16712010046570        0.91239636378187
H            6.72899874854591        0.71606752861395        1.60984621951379
H            6.37365811605113       -3.32126943889381        3.72048434597908
H            6.92776069780094       -1.79221933217892        4.39924427444199
H            8.09691378766702       -3.03203142032911        3.93552176513057
H            9.34713328478636       -1.53921578582344        2.48748677640942
H            8.56755943329818       -0.55201030472105        1.25647481672027
H            8.31467755228656       -0.20009736392466        2.97576702816154
H            7.56586344379252       -2.62146565994703        0.23127233611393
H            8.43843133484955       -3.56723738516237        1.44375539711417
H            6.70178499726042       -3.79098146497705        1.22316012092973
H            4.79032005911921       -3.05986936770273        2.20851991936039
H            2.64095929603862       -2.10497766599600        1.59889723274507
H            1.22325217784654       -3.90361839126833       -0.17533866730492
H            2.49099947012104       -5.99916292386013       -0.00851863058411
H            4.83681999149104       -6.11997736861371       -0.70424011628891
H            5.99602818100084       -4.11867414940449       -1.57883381447868
H            6.68759511287070       -1.58155638997837       -2.38087951641028
H            6.69688686123963        0.81598419161961       -2.98227242308430
H            4.64138479178622        2.14582467827620       -2.85219687676127
H            2.53601390872393        1.15023560303032       -2.06031231555281
H           -2.61295799100536        1.05485964280552       -2.09902516072201
H           -4.75797510068860        1.97293873919948       -2.87954256069673
H           -6.78629480924941        0.59600609322301       -2.90560646152296
H           -6.71034922062541       -1.77419606334840       -2.20883132464008
H           -5.94336296866005       -4.26361906450133       -1.31900141918472
H           -4.71655266351932       -6.20149649483078       -0.39573746512305
H           -2.35695357491527       -6.00242064507285        0.23094475868580
H           -1.14196175651553       -3.88614872932272       -0.05296823973248
