116
 energy: -175.639345842786 gnorm: 0.000035708128 xtb: 6.7.1 (edcfbbe)
B            3.70774718352406       -0.43824014631567        0.17123363788263
C            4.08117703872380        0.01188391070257       -1.26320331129889
C            3.01965313471751        0.23448818696141       -2.15940674985587
C            3.26460477182898        0.68201421705837       -3.45636385175224
C            4.55386855844222        0.88408184550472       -3.89621117592904
C            5.64223635363765        0.63118864780927       -3.06040524179167
C            5.37177856546080        0.20537412342483       -1.77016093800106
C            7.08646070705784        0.79795026989036       -3.51237904995120
C            7.79486064701227       -0.56232942419000       -3.42595452589329
C            7.19860811630895        1.30381781792448       -4.95382172587348
C            7.78899820829056        1.81067547149991       -2.59612532573890
O            1.69886387048392        0.03331810461451       -1.86989003745902
C            1.30496995170076       -0.49637422326137       -0.69160775305454
C           -0.04758337790442       -0.77513388530716       -0.54362620683086
C           -0.50519355487483       -1.31036198920482        0.65536271882365
C            0.37674088247344       -1.58692423804758        1.69433548002965
C            1.72767477076927       -1.30440209591204        1.52936028614811
C            2.22362684375093       -0.75321318211117        0.33803889327357
O            2.54409611340285       -1.57762197349465        2.57182566997168
C            3.86330464001893       -1.21993269010503        2.56188076789543
C            4.52841208674196       -0.63680315273305        1.47023967219184
C            5.87010055654324       -0.27821968795166        1.67294270746315
C            6.55514742647398       -0.50351685450516        2.85165188620789
C            5.85997863124721       -1.12648346585590        3.89373072903653
C            4.53735702451775       -1.47285417353877        3.75741874713219
C            8.00984153464946       -0.10722949644923        3.06021817408681
C            8.62407379218075        0.56146294610183        1.82673787978433
C            8.83042294680021       -1.36565255118906        3.38021121180002
C            8.09507411150607        0.88142812979457        4.23263730480573
N           -1.86951783488897       -1.59788581938697        0.80339635019268
C           -2.34993736591951       -2.88290521996426        0.97029209218788
C           -1.64106773501150       -4.03671598440221        1.26799651486291
C           -2.33425899120195       -5.23000199888962        1.31887428137538
C           -3.69764443184947       -5.27157838470378        1.04377859186484
C           -4.40100070958406       -4.12742280769647        0.72421693738568
C           -3.74026276405430       -2.90176634035324        0.70844248275130
C           -4.10811906971834       -1.54934825601205        0.37602428954618
C           -5.28359085051421       -0.91462582260874       -0.06000906978312
C           -5.24872353297880        0.39862218421420       -0.58764679793179
C           -4.09491233875539        1.16865729824459       -0.37197977724678
C           -2.92449389759112        0.59591643179070        0.17951685507709
C           -2.91985743722827       -0.78464597121414        0.43447043420173
C           -1.98230902703417        1.66901204676811        0.35114576926078
C           -0.73791017500513        1.79985180501145        0.96312823566648
C           -0.12307008717844        3.03559220042868        0.98379222388516
C           -0.73640751496541        4.15853208934629        0.43528712728845
C           -1.99664509313641        4.07319141458262       -0.12241682590472
C           -2.60928895864242        2.82947510827660       -0.15961162501471
N           -3.88035814091759        2.51065639684447       -0.59739659229292
C           -4.85342623086076        3.50241668564072       -0.82747819319238
C           -4.68995396687138        4.40783171125934       -1.87057204284120
C           -5.62555472521048        5.40869752541416       -2.06541779067909
C           -6.72261254613853        5.51097457381995       -1.22575689749139
C           -6.88319030309352        4.61071685625540       -0.18495026594152
C           -5.95083898877691        3.61080036341873        0.02078013122458
C           -6.53533446708899        0.63118221483773       -1.18675164164086
C           -7.07454853275788        1.62451204191509       -1.99976302466522
C           -8.39257277474973        1.52493375480716       -2.39767743951421
C           -9.18853234890671        0.45533891421826       -1.99754682115799
C           -8.66307303986117       -0.57538601521004       -1.24289566215564
C           -7.32704115518256       -0.50039329089624       -0.87866080408350
N           -6.55913155750772       -1.42345948975910       -0.19467715478689
C           -7.11292725689407       -2.49730596458978        0.52330226459750
C           -7.87862637732014       -3.46032406874495       -0.12734113351189
C           -8.45492329250680       -4.48715424675473        0.59969444700493
C           -8.26867809434854       -4.56331064936869        1.97037740662104
C           -7.50081750956655       -3.60831916272162        2.61728448324874
C           -6.92843301417234       -2.57354693719190        1.90131636646785
H            2.42118255528582        0.85439571243029       -4.10842504628748
H            4.69928551571219        1.22817035077037       -4.90678450421868
H            6.19594583332979       -0.01167832707813       -1.11176641386767
H            7.78686075486560       -0.95034414842230       -2.41129235278373
H            8.82985506337916       -0.46639080936954       -3.74751692344276
H            7.29881676551646       -1.28614396116193       -4.06987866387918
H            6.72581751279503        2.27705777476215       -5.06520030260789
H            6.74549203714672        0.60392078922723       -5.65233256415581
H            8.24878645980866        1.40859026706437       -5.21945535839522
H            8.81511392046879        1.96278931161055       -2.92420896501317
H            7.80983297597498        1.46649459722693       -1.56660524000853
H            7.27114534947809        2.76737503797381       -2.62633049348465
H           -0.73103900666275       -0.56888372110528       -1.35134402370042
H            0.02147751539626       -1.98306744930511        2.63234708620659
H            6.36856937490228        0.21468272467729        0.85793771498738
H            6.35242331576926       -1.33359092139138        4.83135072510297
H            3.99320409777708       -1.93404655642886        4.56825740449296
H            9.65815044167303        0.82736089497892        2.03699951560344
H            8.61971283251088       -0.11449359702601        0.97492633441817
H            8.08990948580326        1.47291504183435        1.56814062470768
H            9.87811035249974       -1.10434200054287        3.51396756098460
H            8.75447445092879       -2.08249826621321        2.56478179833254
H            8.48212879452671       -1.84692497025439        4.28988637890877
H            7.49936900715977        1.76757147805255        4.02182643594828
H            7.72989111266087        0.43739722115056        5.15462915030445
H            9.12717289163912        1.18854256070751        4.38862027132828
H           -0.57546452647154       -4.00747643997531        1.43629878541585
H           -1.80756471957390       -6.14297252399962        1.55517713447903
H           -4.21434361085606       -6.22007194297576        1.06473477396894
H           -5.44478965725419       -4.20154804557738        0.47627120423857
H           -0.26113923295145        0.96169531541398        1.44200513438443
H            0.84759630294192        3.13503085920481        1.44832068392192
H           -0.23187481005153        5.11295745638755        0.47077074680644
H           -2.49673632902513        4.95210121092493       -0.50016559210721
H           -3.83985459777405        4.31201104785183       -2.53022453658404
H           -5.49898029599536        6.10734717707993       -2.87944752037373
H           -7.45148325634095        6.29191003292515       -1.38254266255146
H           -7.73621899544176        4.68894354667694        0.47251281085457
H           -6.06608968766293        2.90753776160831        0.83199968311726
H           -6.47476143735356        2.45198172286692       -2.33881842142652
H           -8.81470929689761        2.29380487967481       -3.02836783760887
H          -10.22498186860106        0.41864450016352       -2.29972392458792
H           -9.27611368347729       -1.41443265897964       -0.95152722817558
H           -7.99693391739264       -3.41272742476775       -1.19970027388829
H           -9.04533748950828       -5.23494298694186        0.09083635914142
H           -8.71818666377902       -5.36786279400814        2.53281365690175
H           -7.35123350146557       -3.66576389871445        3.68522594144556
H           -6.32979853293784       -1.82423045654986        2.39778133500972
