116
 energy: -175.547111982443 gnorm: 0.000068582785 xtb: 6.7.1 (edcfbbe)
B            4.41470903401833       -0.35650670620989        0.22197607274462
C            5.33547807093118       -1.08590717020098       -0.78903336785076
C            4.73985410420433       -2.05779747032390       -1.62250642572279
C            5.49526721497265       -2.78787962572578       -2.53254187947082
C            6.85454647867412       -2.56502406028543       -2.66170090005325
C            7.48414781579709       -1.58981238012301       -1.89241288380522
C            6.70603950887718       -0.87912438381153       -0.98590119364580
C            8.96935004200444       -1.27854395944830       -2.01009331132496
C            9.68230785659548       -2.17276066541699       -3.02927964348738
C            9.14009348491346        0.18210974076955       -2.45439728550858
C            9.63953303004494       -1.48755613927326       -0.64376245221354
O            3.40510638485513       -2.36822251338586       -1.62481623739407
C            2.51456396664872       -1.69197955653366       -0.84745672301843
C            1.17883602730383       -2.01921389442430       -1.00794800530089
C            0.21021987068479       -1.35520907106743       -0.24341325001560
C            0.60297932796110       -0.37031986461784        0.67465472443820
C            1.94410384154037       -0.06402554632837        0.81571234084223
C            2.94703085104732       -0.70924480579301        0.06465651462898
O            2.25977985939138        0.90002326779928        1.72260150223595
C            3.56221477328321        1.21569927435981        2.00919977815607
C            4.68418542369291        0.65811019662178        1.36149617278443
C            5.93636902213115        1.07105079466893        1.84175425279593
C            6.11112228012561        1.99808062823490        2.85727272290834
C            4.96639299531960        2.54720286331772        3.43870401750613
C            3.70928973669129        2.15437912024149        3.02579975964274
C            7.48066029410144        2.43784556257394        3.35482945334979
C            8.63264721424903        1.74487679598305        2.62090657773907
C            7.60096320308643        2.10688105907725        4.85010196282156
C            7.62552607393026        3.95306850974516        3.14604239927050
N           -1.14235646739645       -1.66494095135918       -0.38120587335161
C           -1.66891674278510       -2.94414058284903       -0.23923441470061
C           -1.00483111443834       -4.15163039284422       -0.15018290464806
C           -1.76697909290513       -5.31151337359206       -0.06521996413104
C           -3.15377028601941       -5.25468231896708       -0.09532207253715
C           -3.82328045578495       -4.04394357162258       -0.13864114438076
C           -3.08225594834549       -2.86279793541646       -0.15425697023392
C           -3.41152150201215       -1.46949995417219       -0.16878730807635
C           -4.55158945581442       -0.71004260778805        0.09335444740157
C           -4.56267054462381        0.70432833846352       -0.10178098082071
C           -3.40673940605375        1.30555119443820       -0.65448657628057
C           -2.18728426494924        0.59299534529767       -0.76601917241048
C           -2.17591094834891       -0.76809674467775       -0.42271277110058
C           -1.23776904055490        1.50193594429297       -1.34901761194939
C            0.07174337354516        1.39672720100727       -1.81197659766799
C            0.67331002209864        2.49830639726796       -2.38772460671203
C           -0.01367900969034        3.70100109030995       -2.54949415337933
C           -1.32752849592945        3.82341200606052       -2.14683497218672
C           -1.92845908330282        2.72590529467274       -1.54349853953876
N           -3.23228722957860        2.58567405818683       -1.12339766313000
C           -4.23894934712726        3.50800333296942       -1.46198655703923
C           -5.29188229627091        3.11128153950645       -2.28188427877824
C           -6.26288104272514        4.02622029922802       -2.64243941725822
C           -6.18714706952838        5.33719405881045       -2.19807940711902
C           -5.13547386851758        5.73336357767573       -1.38743168816472
C           -4.15981959405888        4.82474562013084       -1.01732944930374
C           -5.82964286447604        1.17088076191002        0.35169743603752
C           -6.40641301746214        2.43061296302950        0.55714096535227
C           -7.68024824950786        2.50818847366355        1.07504970419197
C           -8.39757097116866        1.36309846654984        1.42374118700548
C           -7.83682807879796        0.10524461225672        1.28347342825788
C           -6.56153977565432        0.01960431836432        0.75188080739643
N           -5.77594792536375       -1.10169413032159        0.57996128395353
C           -6.10853226707082       -2.34098263957274        1.16472207303712
C           -7.23872883750996       -3.02825256219777        0.73580436076216
C           -7.58786638503221       -4.22161612832957        1.34349671871945
C           -6.81663056927688       -4.72986552041174        2.37613290726561
C           -5.69319285232833       -4.04162419787703        2.80485736794674
C           -5.33776968268955       -2.84689372355000        2.20616496459544
H            4.99654532698863       -3.52857739841970       -3.14101428775085
H            7.40242046608007       -3.15614411921271       -3.37649762535685
H            7.17561950617795       -0.10902384847041       -0.39718639969025
H            9.60696476859778       -3.22123357286765       -2.74939882170217
H           10.73766238944425       -1.90900225386008       -3.06651110131867
H            9.26757790438392       -2.03885100727258       -4.02587378371350
H            8.68891833948986        0.86721917237889       -1.74217126981409
H            8.66591473770354        0.33815294967883       -3.42166309475348
H           10.19689516518861        0.42604109729260       -2.54330900975596
H           10.70791869181707       -1.29411586084327       -0.71665599388265
H            9.49509187424251       -2.51264993072132       -0.30763600063275
H            9.22384714633539       -0.82208193734635        0.10690618580048
H            0.89345764744260       -2.74687084497821       -1.75126383705195
H           -0.13214094101592        0.14583601300566        1.27165296029975
H            6.80077174817452        0.61838293638596        1.39052901556912
H            5.04464933188489        3.27897072449089        4.22798671678258
H            2.82023324829605        2.56213420780656        3.48482542280411
H            9.58150086140261        2.09428073425109        3.02377586755875
H            8.58799734970799        0.66616441977440        2.75340711992255
H            8.61346034859450        1.97780784470764        1.55881117106435
H            8.57863939865771        2.40635272063437        5.22266832719453
H            7.48308579373911        1.03645289852336        5.00810190879256
H            6.84181439511246        2.62200503669355        5.43226303402380
H            7.51621038930557        4.19911886811185        2.09141397835426
H            6.87225796156480        4.50336072540588        3.70313111327752
H            8.60690587003491        4.28491392746368        3.47930307065682
H            0.07256290696900       -4.19966039749342       -0.14607978447057
H           -1.26891614573872       -6.26689606678094        0.00271403392455
H           -3.72353273559113       -6.17188334796905       -0.07867459219838
H           -4.89864295752645       -4.02649170839810       -0.18340611384303
H            0.61543640988409        0.47113557725190       -1.74490441238393
H            1.69367308032612        2.41981348536885       -2.73337399934691
H            0.48338642117734        4.53949850217859       -3.01383187671792
H           -1.87562834377507        4.73802044133760       -2.31155047554388
H           -5.33893023716398        2.08989855246086       -2.62832006224594
H           -7.07890659588609        3.71600922874728       -3.27749732226237
H           -6.94681356686161        6.04909471419771       -2.48308734830387
H           -5.07542591935115        6.75294707361125       -1.03662315357512
H           -3.34848454789751        5.12080172296909       -0.36887222707108
H           -5.86084250596476        3.33188620212200        0.33932332331966
H           -8.12959007376904        3.47822436740799        1.22855681970351
H           -9.39244837549700        1.46022767940779        1.83133675870081
H           -8.37010928458171       -0.77873318323185        1.59741722200633
H           -7.82748622147172       -2.63146768787662       -0.07810591939038
H           -8.46306532289067       -4.75682811190131        1.00626239033794
H           -7.09164572722728       -5.66142228464225        2.84729364215364
H           -5.09198025244947       -4.43364170332441        3.61132909295307
H           -4.46697770924627       -2.30179169336546        2.53820230381051
