  128
       -201.63315051
 O          8.5514008956       -0.9424074863        3.3579531630
 P          7.6516177607       -0.5330640585        2.2700723234
 C          7.4255965796       -1.8644395116        1.0486200542
 C          6.3482092511       -2.7341803803        1.1019279664
 C          6.2892106409       -3.8057519113        0.2284172925
 C          7.3033775678       -4.0080421841       -0.6931238751
 C          8.3923985173       -3.1515318014       -0.7309955052
 C          8.4566941376       -2.0841062952        0.1463818779
 C          8.2532890034        0.9314252453        1.3717997077
 C          9.5573207315        1.3323413774        1.6298656307
 C         10.0758978395        2.4507260421        1.0026077702
 C          9.2846065747        3.1773519235        0.1274463453
 C          7.9800920588        2.7822376469       -0.1232981421
 C          7.4621820000        1.6571467640        0.4919506454
 C          5.9960177751       -0.0739868242        2.8731271219
 C          5.8973544093        0.1918548278        4.2327091884
 C          4.7081181014        0.6013032183        4.8233200652
 C          3.5659105277        0.7658848785        4.0644798568
 C          3.6360528930        0.5008478441        2.7029686245
 C          4.8443912662        0.0791965180        2.1132141999
 O          4.6986151809       -0.1369075029        0.7772147104
 C          3.4046452843        0.1510506210        0.4803072671
 C          2.7850606516        0.0902370302       -0.7599460543
 P          3.5037134556       -0.5178952911       -2.3186648106
 O          2.6218281798       -0.2300678568       -3.4603854633
 C          3.7333254074       -2.3110272276       -2.0757323912
 C          4.5269276316       -2.9916643233       -2.9888574677
 C          4.6023943972       -4.3714138233       -2.9465441228
 C          3.8763577613       -5.0741802897       -1.9976946536
 C          3.0793649677       -4.3958039211       -1.0901197868
 C          3.0047635118       -3.0136930248       -1.1289274572
 C          5.1605897746        0.2031203403       -2.5183484560
 C          5.2432331391        1.3661270549       -3.2727938746
 C          6.4757959890        1.9376510945       -3.5304492868
 C          7.6263686120        1.3380683930       -3.0431304090
 C          7.5414927168        0.1792758433       -2.2885704110
 C          6.3099315767       -0.3895708495       -2.0170947436
 C          1.4538619746        0.4719074417       -0.8237525426
 C          0.7266036556        0.8800207537        0.2974850063
 C         -0.6845941848        1.2637228618        0.1493453663
 C         -1.6448817815        0.8319538862        1.0600562950
 C         -2.9720302265        1.1760048453        0.8987172037
 C         -3.3756431105        1.9729274820       -0.1672889793
 C         -4.8269607384        2.3827049773       -0.2967893050
 C         -5.7751715904        1.2352346576       -0.0197600683
 C         -5.4587415765       -0.0495222148       -0.4475238229
 C         -6.3458421653       -1.0922963911       -0.2708365878
 C         -7.5835144875       -0.8648185861        0.3239554877
 N         -8.4914889389       -1.9184435923        0.4892232018
 C         -9.1467750630       -2.2475503065        1.6585306949
 C         -9.0423311128       -1.6804530398        2.9206938778
 C         -9.8017931044       -2.2255940718        3.9380124392
 C        -10.6413603881       -3.3150012713        3.7158864234
 C        -10.7313168223       -3.8988274651        2.4682554261
 C         -9.9778253920       -3.3684221345        1.4294125429
 C         -9.8137171826       -3.7220113395        0.0473616019
 C        -10.3693653333       -4.7062255472       -0.7595781092
 C        -10.0034800951       -4.7556773361       -2.0896583422
 C         -9.1079341695       -3.8300574505       -2.6209675771
 C         -8.5417102394       -2.8421997271       -1.8383830316
 C         -8.8862067351       -2.8027826257       -0.4947296435
 C         -7.9089011294        0.4205604712        0.7451313822
 C         -7.0107813924        1.4565267532        0.5744895710
 C         -5.0601998479        3.5911011064        0.5903855107
 C         -4.8984186809        3.7045464705        1.9544458965
 C         -5.1625651036        4.9267785826        2.5583020982
 C         -5.5769401356        6.0156804126        1.8069581794
 C         -5.7375050270        5.9093624385        0.4349380239
 C         -5.4767478889        4.6918608773       -0.1717889007
 C         -5.5625126793        4.2856885160       -1.5652730722
 C         -5.9411875291        4.9913903300       -2.6954830489
 C         -5.9369784101        4.3388678911       -3.9176473570
 C         -5.5651446464        3.0061474595       -4.0095045692
 C         -5.1856834328        2.2942877239       -2.8795008705
 C         -5.1801738342        2.9410013167       -1.6622645979
 C         -2.4149880982        2.4246649531       -1.0623679311
 C         -1.0897400994        2.0639654350       -0.9145250224
 C          1.3489609444        0.9099705393        1.5386255950
 C          2.6875198280        0.5571195683        1.6235282025
 H          5.5655474706       -2.5776974154        1.8302899105
 H          5.4523707677       -4.4862053532        0.2667066374
 H          7.2491984297       -4.8435760263       -1.3747804474
 H          9.1906613026       -3.3220482785       -1.4385289902
 H          9.3068120446       -1.4144711101        0.1510523438
 H         10.1457809683        0.7578298409        2.3310469679
 H         11.0919127925        2.7594204171        1.1998918163
 H          9.6834492469        4.0560520652       -0.3576351418
 H          7.3627117396        3.3512956973       -0.8030855720
 H          6.4536317561        1.3409168840        0.2831996083
 H          6.7883936802        0.0607492908        4.8289462862
 H          4.6820680272        0.7946852492        5.8847085870
 H          2.6381697096        1.0901701874        4.5099418268
 H          5.0723996663       -2.4282295418       -3.7340066038
 H          5.2174990861       -4.9009752320       -3.6592854124
 H          3.9276685619       -6.1527848582       -1.9688808800
 H          2.5073559901       -4.9447372476       -0.3556678043
 H          2.3761874481       -2.4794028315       -0.4300675459
 H          4.3329381588        1.7968647133       -3.6653042448
 H          6.5413599594        2.8413398016       -4.1185671136
 H          8.5925947918        1.7728433045       -3.2528533826
 H          8.4394573543       -0.2861010504       -1.9121298473
 H          6.2385434862       -1.2903797634       -1.4278161878
 H          0.9718400374        0.4247622125       -1.7887370829
 H         -1.3519525789        0.1986837623        1.8851582895
 H         -3.7070368324        0.8070730376        1.5987246366
 H         -4.5014571288       -0.2395785870       -0.9095159365
 H         -6.0809031080       -2.0909308848       -0.5844559074
 H         -8.3824665921       -0.8461872628        3.1063558536
 H         -9.7410887872       -1.7989749860        4.9283415863
 H        -11.2209166519       -3.7102154339        4.5366553124
 H        -11.3694261582       -4.7530321765        2.2993192053
 H        -11.0758246804       -5.4130058019       -0.3512082408
 H        -10.4218392298       -5.5144736198       -2.7338552618
 H         -8.8534477453       -3.8829733091       -3.6692578868
 H         -7.8637278166       -2.1175593066       -2.2638225283
 H         -8.8754061909        0.6075898502        1.1883653236
 H         -7.2798946013        2.4513099586        0.8968398893
 H         -4.5766194245        2.8617659310        2.5478392518
 H         -5.0437527670        5.0291867079        3.6268570537
 H         -5.7762663008        6.9568885700        2.2977474441
 H         -6.0596900226        6.7586364085       -0.1488464692
 H         -6.2349036171        6.0281313702       -2.6262880256
 H         -6.2286492419        4.8728582597       -4.8099786908
 H         -5.5705494757        2.5151171139       -4.9713614107
 H         -4.8968436521        1.2564965229       -2.9563543954
 H         -2.7052978923        3.0580553743       -1.8867062051
 H         -0.3551630826        2.4205641729       -1.6208909029
 H          0.8112027532        1.2266809370        2.4186852411
