  59
  -89.1431914357000       0.235357394713727      !
 C          5.8486096972        1.4587307444        0.0376197831
 C          5.1134474456        1.8124650813       -1.0844779911
 C          3.7445842093        1.6242292339       -1.1068919450
 C          3.1029790536        1.0791256204        0.0006064987
 N          1.6990412484        0.8759795568       -0.0187119149
 C          0.8626930028        1.9748858424        0.0161866069
 C          1.3893210471        3.2738395585        0.0932107308
 C          0.5585551652        4.3705387086        0.1200699725
 C         -0.8203168768        4.2062417067        0.0842675392
 C         -1.3492113693        2.9285645496        0.0443473791
 C         -0.5332713808        1.8090692506        0.0174933016
 C         -1.1732614491        0.4462465539        0.0102616937
 C         -2.1485144185        0.3148500795        1.1646515837
 C         -1.8806380677        0.3629238906        2.5140868195
 C         -2.9357954481        0.2155661513        3.4051623055
 C         -4.2304758019        0.0258346682        2.9458226465
 C         -4.5046868931       -0.0221883956        1.5886093624
 C         -3.4562112084        0.1241048844        0.6946214443
 C         -3.4285028180        0.1181759854       -0.7588475702
 C         -4.4424709738       -0.0333551367       -1.6909460188
 C         -4.1163550154        0.0012218460       -3.0370443891
 C         -2.8041824947        0.1813375068       -3.4481738062
 C         -1.7836085064        0.3350388278       -2.5187949672
 C         -2.1037082095        0.3030614718       -1.1803161692
 C         -0.1572356193       -0.6692721635        0.0235558985
 C         -0.6126607881       -1.9810681187        0.0498880588
 C          0.2741647284       -3.0911920720        0.0298487470
 C         -0.1692494369       -4.4039594280        0.0700165804
 C          0.7480492883       -5.4812273225        0.0254843360
 C          2.0960568367       -5.2400575447       -0.0683445258
 C          2.5728147387       -3.9270071537       -0.1133505240
 C          1.6778052236       -2.8314043074       -0.0598586114
 C          2.1264636682       -1.5186619357       -0.0993271143
 C          1.2044289203       -0.4075407616       -0.0211826217
 C          3.8400997378        0.7234496414        1.1274246848
 C          5.2092076844        0.9140969091        1.1396114949
 H          6.9177777532        1.6053939210        0.0504849759
 H          5.6100655247        2.2305187295       -1.9470699911
 H          3.1644488273        1.8895102164       -1.9784085036
 H          2.4578757004        3.4153557455        0.1397233881
 H          0.9860026139        5.3604105538        0.1751493257
 H         -1.4738362111        5.0643147450        0.1012219134
 H         -2.4203963034        2.7896161992        0.0376126478
 H         -0.8718008410        0.5090430050        2.8726836974
 H         -2.7460987461        0.2484227503        4.4679647601
 H         -5.0358861896       -0.0859165607        3.6572689238
 H         -5.5146987234       -0.1702676930        1.2359784437
 H         -5.4656499561       -0.1761439959       -1.3759507809
 H         -4.8942921774       -0.1152632395       -3.7777687737
 H         -2.5732749682        0.2013080788       -4.5031475538
 H         -0.7609592038        0.4724517726       -2.8398778961
 H         -1.6746327964       -2.1697714357        0.0863094102
 H         -1.2277930754       -4.6079734672        0.1299532962
 H          0.3721277267       -6.4929438604        0.0618354246
 H          2.7976027245       -6.0605175019       -0.1076421192
 H          3.6327262578       -3.7335008988       -0.1851685886
 H          3.1801515662       -1.3252383308       -0.2169532271
 H          3.3323481777        0.2985676130        1.9805244546
 H          5.7792740971        0.6355608615        2.0130923635
  59
  -89.1431017781000       0.214054354894458      !
 C          5.8068413469        1.4889683513        0.5334890586
 C          5.3142525209        0.9849547832       -0.6594406677
 C          3.9568432382        0.7788820142       -0.8217555476
 C          3.0841579579        1.0767250736        0.2215120396
 N          1.6890478312        0.8647222885        0.0696150950
 C          0.8621688117        1.9643060394       -0.0516304703
 C          1.4016034874        3.2583806883       -0.1186095013
 C          0.5825504971        4.3561570458       -0.2515880721
 C         -0.7948318409        4.1964695713       -0.3338817080
 C         -1.3337995661        2.9226931125       -0.2940088868
 C         -0.5299981750        1.8025311723       -0.1599439623
 C         -1.1726004002        0.4419717763       -0.1072865213
 C         -2.0187277323        0.3211868079        1.1491052453
 C         -1.6065638315        0.3754783616        2.4613073754
 C         -2.5606594307        0.2415451419        3.4617900369
 C         -3.8981482234        0.0573740825        3.1453396617
 C         -4.3164605186        0.0001494334        1.8257584174
 C         -3.3694457440        0.1335605601        0.8230935026
 C         -3.4974635726        0.1153881695       -0.6246409131
 C         -4.6060698153       -0.0411846925       -1.4410580723
 C         -4.4264917812       -0.0186684738       -2.8146716660
 C         -3.1659057583        0.1561272481       -3.3658672479
 C         -2.0510186936        0.3153228251       -2.5528601757
 C         -2.2245985242        0.2932709984       -1.1872582628
 C         -0.1573592146       -0.6738371886       -0.1580000297
 C         -0.6076799311       -1.9814541086       -0.2850685127
 C          0.2801626601       -3.0909965906       -0.2876658070
 C         -0.1561448256       -4.3977902126       -0.4416455968
 C          0.7604071919       -5.4764614375       -0.4165023817
 C          2.0999290927       -5.2434095574       -0.2278641065
 C          2.5691375908       -3.9367217319       -0.0665373568
 C          1.6754408902       -2.8391378590       -0.0990186600
 C          2.1170840255       -1.5322714940        0.0540474477
 C          1.1992051415       -0.4177190672       -0.0157768095
 C          3.5776567237        1.5839201204        1.4188930530
 C          4.9359513192        1.7882048964        1.5709643179
 H          6.8671600332        1.6484321442        0.6561148455
 H          5.9899955888        0.7527563403       -1.4688094430
 H          3.5623580068        0.3884561765       -1.7480450485
 H          2.4712150534        3.3937207538       -0.0746629687
 H          1.0184484367        5.3427631546       -0.2977873803
 H         -1.4393156092        5.0555095467       -0.4356169881
 H         -2.4030636846        2.7887694838       -0.3676669577
 H         -0.5638479310        0.5145361374        2.7090874556
 H         -2.2574397287        0.2802350649        4.4977848089
 H         -4.6231039130       -0.0440676904        3.9400371697
 H         -5.3589209462       -0.1463422329        1.5849711977
 H         -5.5895056156       -0.1787279210       -1.0165580315
 H         -5.2796403296       -0.1397281263       -3.4665044658
 H         -3.0498588176        0.1677729055       -4.4396705696
 H         -1.0689465830        0.4503422416       -2.9826920733
 H         -1.6659026610       -2.1678027113       -0.3849448326
 H         -1.2087567077       -4.5963643262       -0.5771736701
 H          0.3901779101       -6.4830527035       -0.5426318013
 H          2.8006378985       -6.0652431279       -0.2034275478
 H          3.6224221075       -3.7496105857        0.0807601897
 H          3.1619043997       -1.3480614026        0.2433749595
 H          2.8914221083        1.8109246169        2.2214994532
 H          5.3173808148        2.1777449355        2.5026966021
  59
  -89.1427791559000       0.152144819908775      !
 C          5.7018929780        1.4040962976        1.0290457667
 C          5.2715738526        1.7541455810       -0.2426230913
 C          3.9464544863        1.5896117828       -0.5997727659
 C          3.0415254944        1.0733983542        0.3222794047
 N          1.6784222231        0.8841949906       -0.0196607689
 C          0.8574928423        1.9785619993       -0.2122888428
 C          1.3779253280        3.2811558630       -0.2197641442
 C          0.5604131857        4.3641463638       -0.4523709455
 C         -0.7987063075        4.1823742399       -0.6715536079
 C         -1.3293951032        2.9054365394       -0.6172741568
 C         -0.5279050486        1.8007215994       -0.3817719846
 C         -1.1706831405        0.4504905922       -0.2038259544
 C         -1.9253897979        0.4259923696        1.1158908784
 C         -1.4241694992        0.5947028666        2.3865550693
 C         -2.3021753255        0.5237391114        3.4604661542
 C         -3.6530781288        0.2866011099        3.2559666762
 C         -4.1613659020        0.1176578094        1.9783186680
 C         -3.2909466380        0.1908137905        0.9025001871
 C         -3.5199630305        0.0626640890       -0.5268481647
 C         -4.6802765893       -0.1700269695       -1.2480185407
 C         -4.5983690015       -0.2484519165       -2.6287612524
 C         -3.3833497723       -0.0971735280       -3.2806724267
 C         -2.2170470057        0.1378092155       -2.5638519908
 C         -2.2934049462        0.2158214893       -1.1912104017
 C         -0.1588214562       -0.6689404817       -0.2383725155
 C         -0.6001264464       -1.9816946038       -0.3420228322
 C          0.2986089312       -3.0824674782       -0.3481360615
 C         -0.1309309535       -4.3957100431       -0.4625971334
 C          0.7972360153       -5.4644281513       -0.4763158307
 C          2.1435013944       -5.2139825709       -0.3830828291
 C          2.6069599941       -3.8999492562       -0.2711638439
 C          1.7000637912       -2.8133952150       -0.2494315026
 C          2.1345280421       -1.4995409439       -0.1409917055
 C          1.1962334290       -0.4010321014       -0.1147937867
 C          3.4754874037        0.7113840228        1.5953557971
 C          4.8024609341        0.8794958802        1.9430194825
 H          6.7374598085        1.5348226923        1.3034018703
 H          5.9728203968        2.1530091827       -0.9598800669
 H          3.6071835848        1.8446434066       -1.5930354053
 H          2.4290463023        3.4394716582       -0.0361349583
 H          0.9833130309        5.3574640478       -0.4598281805
 H         -1.4399927258        5.0290030780       -0.8602992496
 H         -2.3913812854        2.7585211173       -0.7485909605
 H         -0.3712387781        0.7777316123        2.5477970103
 H         -1.9285164211        0.6527757627        4.4656913217
 H         -4.3177228611        0.2342523938        4.1061112696
 H         -5.2144306646       -0.0665765756        1.8253767096
 H         -5.6284022641       -0.2904109058       -0.7449165333
 H         -5.4926761543       -0.4313299232       -3.2068926694
 H         -3.3436092166       -0.1649553300       -4.3579131686
 H         -1.2701620738        0.2529689571       -3.0712722158
 H         -1.6581873205       -2.1800228471       -0.4155120972
 H         -1.1865486084       -4.6058575095       -0.5482021742
 H          0.4310458307       -6.4767230155       -0.5622197287
 H          2.8542738840       -6.0273707335       -0.3965569233
 H          3.6653686458       -3.6995191292       -0.1955751082
 H          3.1920575547       -1.2909315414       -0.1173339320
 H          2.7671629538        0.2987895013        2.2983510365
 H          5.1350760672        0.6004355250        2.9315128156
  59
  -89.1427724860000       0.151074754320503      !
 C          5.7408602319        1.4856819269        0.8663274156
 C          5.3472210383        0.9744702099       -0.3598693449
 C          4.0073155223        0.7711084896       -0.6331258875
 C          3.0519529489        1.0775303518        0.3325373308
 N          1.6733819441        0.8620291620        0.0746983508
 C          0.8590176217        1.9598218873       -0.1253498054
 C          1.4094630456        3.2474696089       -0.2138472509
 C          0.6053899916        4.3414286000       -0.4399363344
 C         -0.7653476968        4.1822564042       -0.5964882060
 C         -1.3147452345        2.9136740772       -0.5286574298
 C         -0.5265868073        1.7982583838       -0.2993034691
 C         -1.1725281135        0.4432626655       -0.1846714339
 C         -1.9378273077        0.3568397028        1.1267598008
 C         -1.4449444281        0.4497743486        2.4084784757
 C         -2.3339882523        0.3410525264        3.4701064991
 C         -3.6873952007        0.1418508817        3.2430463003
 C         -4.1865623695        0.0445920893        1.9543374467
 C         -3.3048159092        0.1540960375        0.8909835184
 C         -3.5227387644        0.0960922687       -0.5447228805
 C         -4.6796891567       -0.0878758038       -1.2849997622
 C         -4.5874978032       -0.0998972925       -2.6673364008
 C         -3.3655835260        0.0686605565       -3.3015826052
 C         -2.2024116944        0.2540590483       -2.5652490143
 C         -2.2886210852        0.2651182475       -1.1909953746
 C         -0.1589054444       -0.6739892765       -0.2524716506
 C         -0.6007702634       -1.9784534035       -0.4304853314
 C          0.2893027071       -3.0862860015       -0.4220926427
 C         -0.1356231968       -4.3887659623       -0.6339828931
 C          0.7801659569       -5.4674925761       -0.5871633220
 C          2.1067848597       -5.2393814145       -0.3192349580
 C          2.5646761530       -3.9367555181       -0.1009660261
 C          1.6725705208       -2.8390005489       -0.1556922565
 C          2.1044472401       -1.5357988226        0.0490171494
 C          1.1903043452       -0.4206627201       -0.0454011556
 C          3.4460164350        1.5965154803        1.5613027240
 C          4.7876244565        1.7982649521        1.8243390241
 H          6.7880519617        1.6410481394        1.0760771583
 H          6.0871328907        0.7341023367       -1.1085227687
 H          3.6899852370        0.3765471551       -1.5869623935
 H          2.4758105642        3.3798297212       -0.1141391206
 H          1.0484425810        5.3239674096       -0.5018590246
 H         -1.3979005028        5.0380848265       -0.7729930672
 H         -2.3795071555        2.7818098974       -0.6526306849
 H         -0.3897247219        0.5998226743        2.5877221817
 H         -1.9669354014        0.4113792705        4.4835863567
 H         -4.3607923658        0.0599683104        4.0840148777
 H         -5.2411498771       -0.1136138491        1.7834436076
 H         -5.6333412462       -0.2196455900       -0.7955452640
 H         -5.4792718812       -0.2426027612       -3.2604603136
 H         -3.3180192044        0.0548628500       -4.3805300578
 H         -1.2505053805        0.3837388980       -3.0596063114
 H         -1.6534994022       -2.1647004647       -0.5766236226
 H         -1.1791067596       -4.5843655319       -0.8306188996
 H          0.4186933758       -6.4705295727       -0.7588937873
 H          2.8064218326       -6.0613241118       -0.2762570122
 H          3.6080317133       -3.7533729466        0.1085472012
 H          3.1382318024       -1.3566387306        0.2948599140
 H          2.6962658940        1.8339546970        2.3017183014
 H          5.0913687294        2.1951244456        2.7811958183
  59
  -89.1425262068000       0.116415233302840      !
 C          5.6465566564        1.4047586262        1.1970148117
 C          5.2657575192        1.7584180553       -0.0892467292
 C          3.9566832535        1.5905288113       -0.4997536969
 C          3.0169394900        1.0688880389        0.3838295799
 N          1.6685403989        0.8773764802       -0.0095021880
 C          0.8530589435        1.9677876940       -0.2453924550
 C          1.3718024692        3.2705325699       -0.2672792315
 C          0.5605438950        4.3458026024       -0.5522910610
 C         -0.7904241796        4.1556473884       -0.8100842612
 C         -1.3221103761        2.8798586699       -0.7373943780
 C         -0.5271911439        1.7833326109       -0.4486196625
 C         -1.1701130345        0.4379230263       -0.2342166453
 C         -1.8866774237        0.4476417800        1.1075313301
 C         -1.3488976979        0.6409125496        2.3596395278
 C         -2.1982146841        0.6095925697        3.4582809578
 C         -3.5573747131        0.3871317770        3.2962213587
 C         -4.1022728362        0.1927332085        2.0374281432
 C         -3.2604750391        0.2260161451        0.9371113932
 C         -3.5305092473        0.0663297350       -0.4816969640
 C         -4.7132671909       -0.1708562544       -1.1639938171
 C         -4.6716720366       -0.2824862335       -2.5442740639
 C         -3.4740964473       -0.1603418910       -3.2334253974
 C         -2.2854885247        0.0791325058       -2.5556686140
 C         -2.3215966425        0.1906212045       -1.1835764459
 C         -0.1582130612       -0.6812632850       -0.2729508015
 C         -0.5909210776       -1.9942647645       -0.4033808238
 C          0.3146029650       -3.0898815372       -0.4161299667
 C         -0.1050017073       -4.4026659730       -0.5662970708
 C          0.8295752428       -5.4658328176       -0.5872653436
 C          2.1725215349       -5.2103245486       -0.4644862235
 C          2.6260700498       -3.8967368680       -0.3148489790
 C          1.7125172296       -2.8157348058       -0.2859937749
 C          2.1376316624       -1.5023876962       -0.1411090232
 C          1.1934207679       -0.4092578782       -0.1204517181
 C          3.4019824853        0.7019192982        1.6713334335
 C          4.7133845476        0.8729276261        2.0721869842
 H          6.6698580727        1.5381704322        1.5128220521
 H          5.9943159870        2.1592797288       -0.7778105183
 H          3.6577225512        1.8451019986       -1.5060336545
 H          2.4162252970        3.4358445716       -0.0543883898
 H          0.9821435077        5.3394659383       -0.5708642434
 H         -1.4264892240        4.9960568175       -1.0399818252
 H         -2.3798955402        2.7288293321       -0.8949190333
 H         -0.2900543189        0.8156308939        2.4884557181
 H         -1.7957029737        0.7601014465        4.4493511127
 H         -4.1994386033        0.3667351827        4.1649683766
 H         -5.1616177364        0.0202289312        1.9173583298
 H         -5.6478017425       -0.2680961944       -0.6314660918
 H         -5.5840593909       -0.4682226783       -3.0924755824
 H         -3.4655425256       -0.2546234754       -4.3093263812
 H         -1.3524657655        0.1714701391       -3.0924596579
 H         -1.6464023696       -2.1975193794       -0.4970026431
 H         -1.1576579473       -4.6170727300       -0.6746576231
 H          0.4709648002       -6.4778812744       -0.7025775473
 H          2.8880564327       -6.0193994235       -0.4841510592
 H          3.6816376620       -3.6919239247       -0.2156824601
 H          3.1932275889       -1.2886392766       -0.0900300380
 H          2.6681120898        0.2835189331        2.3440965033
 H          5.0078234467        0.5895962539        3.0714902219
  59
  -89.1423699154000       9.866957521798232E-002 !
 C          5.6171562673        1.3988362404        1.2791968078
 C          5.2643992720        1.7586409663       -0.0133956968
 C          3.9645447686        1.5931078087       -0.4533008566
 C          3.0052317681        1.0686267584        0.4074780674
 N          1.6652188243        0.8787972172       -0.0133672509
 C          0.8539936052        1.9686810605       -0.2676539124
 C          1.3744159471        3.2703259742       -0.2990602844
 C          0.5670683390        4.3432701973       -0.6038050107
 C         -0.7815627753        4.1518572967       -0.8720077033
 C         -1.3157878211        2.8776416389       -0.7892995952
 C         -0.5247541890        1.7836677901       -0.4811631900
 C         -1.1692574890        0.4416092441       -0.2522274067
 C         -1.8652368015        0.4576052090        1.1005542257
 C         -1.3094036444        0.6609507910        2.3431014455
 C         -2.1410946286        0.6296634540        3.4550557076
 C         -3.5009953970        0.3971465314        3.3155128904
 C         -4.0642060862        0.1929929305        2.0664017323
 C         -3.2400849811        0.2267336418        0.9527256663
 C         -3.5314897247        0.0601619710       -0.4609868415
 C         -4.7236842180       -0.1860217645       -1.1235420277
 C         -4.7035701944       -0.3016002861       -2.5039420945
 C         -3.5179582782       -0.1742261743       -3.2126650722
 C         -2.3199325164        0.0736526295       -2.5547565477
 C         -2.3345937198        0.1889501227       -1.1825095090
 C         -0.1590636789       -0.6792725470       -0.2959642407
 C         -0.5904041692       -1.9913835808       -0.4378786376
 C          0.3155574201       -3.0867088627       -0.4472026852
 C         -0.1024306381       -4.3985231831       -0.6101110398
 C          0.8319038129       -5.4619087152       -0.6233322931
 C          2.1730853998       -5.2075406148       -0.4804047580
 C          2.6251324203       -3.8948640962       -0.3189585762
 C          1.7117709685       -2.8136098964       -0.2981180351
 C          2.1354842271       -1.5008312306       -0.1438672615
 C          1.1910864678       -0.4079195786       -0.1298940754
 C          3.3627223156        0.6944876547        1.7010984667
 C          4.6650768615        0.8626000994        2.1310867409
 H          6.6334089095        1.5304147047        1.6178743599
 H          6.0078542744        2.1626772691       -0.6839512030
 H          3.6884927229        1.8512512260       -1.4651720101
 H          2.4168058226        3.4372377144       -0.0780336496
 H          0.9900970681        5.3362075770       -0.6294901785
 H         -1.4143645585        4.9904080460       -1.1172142561
 H         -2.3723978418        2.7261920893       -0.9538865883
 H         -0.2500009366        0.8436549989        2.4548963023
 H         -1.7240953867        0.7882036641        4.4388357206
 H         -4.1290828317        0.3765045812        4.1943677932
 H         -5.1240515108        0.0127544067        1.9638881593
 H         -5.6489607628       -0.2873172210       -0.5757906647
 H         -5.6233750834       -0.4954338731       -3.0367556601
 H         -3.5262098963       -0.2712438261       -4.2883384964
 H         -1.3961377306        0.1697652262       -3.1066534211
 H         -1.6449142141       -2.1948188691       -0.5415000130
 H         -1.1536617495       -4.6119278057       -0.7337392578
 H          0.4745308606       -6.4732337622       -0.7488049346
 H          2.8884852746       -6.0168986370       -0.4931084138
 H          3.6793229964       -3.6910595271       -0.2039891380
 H          3.1905095161       -1.2871689779       -0.0809211696
 H          2.6146197998        0.2720693575        2.3554961635
 H          4.9375800130        0.5739336785        3.1350633828
  59
  -89.1413141467000       3.228386764171477E-002 !
 C          5.4815019654        1.5734566868        1.5655922117
 C          5.3403618873        1.0127483946        0.3062666339
 C          4.0823747474        0.7655435072       -0.2122462369
 C          2.9533822112        1.0739730395        0.5413049260
 N          1.6462144581        0.8274289704        0.0503055235
 C          0.8656537416        1.9144812517       -0.2977419400
 C          1.4473783483        3.1788911729       -0.4634846414
 C          0.6844876599        4.2526216012       -0.8647857967
 C         -0.6706069780        4.0908231950       -1.1202366710
 C         -1.2521195719        2.8437708916       -0.9636191065
 C         -0.5062339528        1.7513450623       -0.5560589157
 C         -1.1631553305        0.4209947142       -0.2992234345
 C         -1.7752082152        0.4339535290        1.0950131160
 C         -1.1415679455        0.5924283777        2.3065059459
 C         -1.9078208644        0.5753729408        3.4648612475
 C         -3.2818021183        0.3997422467        3.4019621193
 C         -3.9224894261        0.2319918210        2.1853405506
 C         -3.1631945650        0.2498138356        1.0260076838
 C         -3.5409194627        0.0987825732       -0.3685041097
 C         -4.7759345602       -0.1178234315       -0.9592885905
 C         -4.8402360133       -0.2344057058       -2.3381553982
 C         -3.6957339536       -0.1349186669       -3.1157832955
 C         -2.4553208608        0.0841370505       -2.5298817211
 C         -2.3853240381        0.1973751249       -1.1586897307
 C         -0.1588676582       -0.7040989023       -0.3962241013
 C         -0.5877929585       -2.0007056244       -0.6452909131
 C          0.3104686179       -3.1022931303       -0.6574587319
 C         -0.0970765005       -4.3934802341       -0.9560448465
 C          0.8238880800       -5.4687656248       -0.9333530372
 C          2.1374357586       -5.2488309834       -0.6025084915
 C          2.5766941402       -3.9579360600       -0.2926422234
 C          1.6793873330       -2.8634416960       -0.3197016386
 C          2.0919647962       -1.5719185487       -0.0190456807
 C          1.1792960838       -0.4575922313       -0.1153418377
 C          3.0953710275        1.6503746940        1.8003412692
 C          4.3560008691        1.8964997146        2.3085520941
 H          6.4654776239        1.7629929951        1.9662801615
 H          6.2151783598        0.7698622806       -0.2780620085
 H          3.9651176403        0.3434723630       -1.1993604117
 H          2.5049649091        3.3061608433       -0.2888914377
 H          1.1486079478        5.2195760100       -0.9875356527
 H         -1.2696419880        4.9306528732       -1.4360605878
 H         -2.3073040841        2.7155712352       -1.1537695678
 H         -0.0702457466        0.7203997567        2.3621076541
 H         -1.4277677989        0.6991494463        4.4246455752
 H         -3.8585365374        0.3912001335        4.3155300837
 H         -4.9921581052        0.0900117317        2.1425804859
 H         -5.6693637015       -0.1961369886       -0.3576269258
 H         -5.7942825976       -0.4061448057       -2.8154341997
 H         -3.7697255265       -0.2313094507       -4.1890117666
 H         -1.5635419967        0.1576549629       -3.1353275252
 H         -1.6332000681       -2.1879212765       -0.8343406959
 H         -1.1306960804       -4.5827222602       -1.2043168645
 H          0.4766606641       -6.4623456885       -1.1750973134
 H          2.8415608007       -6.0677852295       -0.5814885564
 H          3.6100201620       -3.7816470744       -0.0331616528
 H          3.1112398402       -1.4019531224        0.2859475268
 H          2.2134021069        1.9004349770        2.3719044386
 H          4.4610717332        2.3365257489        3.2887867259
