  59
        -89.54082852
 C          5.8486096972        1.4587307444        0.0376197831
 C          5.1134474456        1.8124650813       -1.0844779911
 C          3.7445842093        1.6242292339       -1.1068919450
 C          3.1029790536        1.0791256204        0.0006064987
 N          1.6990412484        0.8759795568       -0.0187119149
 C          0.8626930028        1.9748858424        0.0161866069
 C          1.3893210471        3.2738395585        0.0932107308
 C          0.5585551652        4.3705387086        0.1200699725
 C         -0.8203168768        4.2062417067        0.0842675392
 C         -1.3492113693        2.9285645496        0.0443473791
 C         -0.5332713808        1.8090692506        0.0174933016
 C         -1.1732614491        0.4462465539        0.0102616937
 C         -2.1485144185        0.3148500795        1.1646515837
 C         -1.8806380677        0.3629238906        2.5140868195
 C         -2.9357954481        0.2155661513        3.4051623055
 C         -4.2304758019        0.0258346682        2.9458226465
 C         -4.5046868931       -0.0221883956        1.5886093624
 C         -3.4562112084        0.1241048844        0.6946214443
 C         -3.4285028180        0.1181759854       -0.7588475702
 C         -4.4424709738       -0.0333551367       -1.6909460188
 C         -4.1163550154        0.0012218460       -3.0370443891
 C         -2.8041824947        0.1813375068       -3.4481738062
 C         -1.7836085064        0.3350388278       -2.5187949672
 C         -2.1037082095        0.3030614718       -1.1803161692
 C         -0.1572356193       -0.6692721635        0.0235558985
 C         -0.6126607881       -1.9810681187        0.0498880588
 C          0.2741647284       -3.0911920720        0.0298487470
 C         -0.1692494369       -4.4039594280        0.0700165804
 C          0.7480492883       -5.4812273225        0.0254843360
 C          2.0960568367       -5.2400575447       -0.0683445258
 C          2.5728147387       -3.9270071537       -0.1133505240
 C          1.6778052236       -2.8314043074       -0.0598586114
 C          2.1264636682       -1.5186619357       -0.0993271143
 C          1.2044289203       -0.4075407616       -0.0211826217
 C          3.8400997378        0.7234496414        1.1274246848
 C          5.2092076844        0.9140969091        1.1396114949
 H          6.9177777532        1.6053939210        0.0504849759
 H          5.6100655247        2.2305187295       -1.9470699911
 H          3.1644488273        1.8895102164       -1.9784085036
 H          2.4578757004        3.4153557455        0.1397233881
 H          0.9860026139        5.3604105538        0.1751493257
 H         -1.4738362111        5.0643147450        0.1012219134
 H         -2.4203963034        2.7896161992        0.0376126478
 H         -0.8718008410        0.5090430050        2.8726836974
 H         -2.7460987461        0.2484227503        4.4679647601
 H         -5.0358861896       -0.0859165607        3.6572689238
 H         -5.5146987234       -0.1702676930        1.2359784437
 H         -5.4656499561       -0.1761439959       -1.3759507809
 H         -4.8942921774       -0.1152632395       -3.7777687737
 H         -2.5732749682        0.2013080788       -4.5031475538
 H         -0.7609592038        0.4724517726       -2.8398778961
 H         -1.6746327964       -2.1697714357        0.0863094102
 H         -1.2277930754       -4.6079734672        0.1299532962
 H          0.3721277267       -6.4929438604        0.0618354246
 H          2.7976027245       -6.0605175019       -0.1076421192
 H          3.6327262578       -3.7335008988       -0.1851685886
 H          3.1801515662       -1.3252383308       -0.2169532271
 H          3.3323481777        0.2985676130        1.9805244546
 H          5.7792740971        0.6355608615        2.0130923635
