  108
       -159.42226304
 C         -3.2274706613        6.6507703080        1.0504759846
 C         -1.9394647865        5.8260372101        1.2265116110
 C         -0.8061162308        6.7167501458        1.7673782328
 C         -1.5248331877        5.2801360106       -0.1269930845
 C         -1.2467281923        6.1593321773       -1.1642772522
 C         -0.8731897624        5.7189654812       -2.4207215745
 C         -0.7753171242        4.3604361169       -2.6598782604
 C         -1.0447694533        3.4645371587       -1.6469221095
 C         -1.4159117515        3.9077844077       -0.3741895844
 N         -1.6776941970        2.9838103381        0.6237081597
 C         -1.5671107060        1.5994648494        0.3219598653
 C         -0.3289615209        0.9751928250        0.3867419951
 C         -0.2212103846       -0.3799382803        0.0932569111
 C          1.0574986688       -1.0981766415        0.1924755893
 C          2.2895575634       -0.4921966750       -0.0357108899
 C          3.4240029522       -1.2977761549        0.0890075113
 C          4.7845671471       -0.8034098164       -0.1439355456
 C          5.8601001050       -1.4841371702        0.4266158076
 C          7.1534958635       -1.0538045848        0.2244345760
 C          7.4167538579        0.0644886076       -0.5660272424
 C          8.7964257014        0.5159229293       -0.7925739558
 C          9.7218803149        0.5215449137        0.2489013452
 C         11.0203615174        0.9438726136        0.0339243709
 C         11.4179116694        1.3611434156       -1.2252906984
 C         10.5071257296        1.3572082535       -2.2684209459
 C          9.2063118832        0.9415824732       -2.0542921254
 C          6.3413830152        0.7376192865       -1.1431049537
 C          5.0445910384        0.3149542536       -0.9336284515
 N          3.3139483290       -2.5758358713        0.4442794442
 C          2.0988483602       -3.0714748637        0.6435703445
 C          1.9894027537       -4.4787042521        1.0366477038
 C          0.7477157584       -5.0183389201        1.3673992496
 C          0.6470235129       -6.3435945652        1.7439475011
 C          1.7797061892       -7.1409369617        1.7943999278
 C          3.0168723687       -6.6094470341        1.4652700238
 C          3.1244056865       -5.2850176358        1.0875721667
 N          0.9690115334       -2.3848223728        0.5148729687
 C         -1.3565965471       -1.0953355197       -0.2735272573
 C         -2.5957044959       -0.4731504665       -0.3310066592
 N         -3.7478682142       -1.2117304960       -0.6888983152
 C         -4.3993956227       -0.9129993730       -1.8792101680
 C         -3.8707051334        0.0538894122       -2.7399612346
 C         -4.5080833960        0.3875799807       -3.9159789348
 C         -5.6857898401       -0.2475381858       -4.2651033576
 C         -6.1901830747       -1.2319716430       -3.4366352928
 C         -5.5655897316       -1.5903427227       -2.2494091098
 C         -6.1511844384       -2.7103750957       -1.4120789118
 C         -7.5728466612       -2.3122101595       -0.9751206778
 C         -6.1938040633       -3.9894146086       -2.2681340805
 C         -5.3248229783       -2.9790495571       -0.1693890300
 C         -5.7161477887       -3.9902518387        0.6982497091
 C         -5.0305187525       -4.2631860072        1.8664634009
 C         -3.9330659188       -3.4901255442        2.1985617697
 C         -3.5242935006       -2.4786507556        1.3556189630
 C         -4.1919034176       -2.2251384288        0.1534084600
 C         -2.7015630706        0.8802109832       -0.0273485862
 C         -2.0658614326        3.3662099013        1.8976420394
 C         -2.3092039005        2.3896192539        2.8673300208
 C         -2.6962408443        2.7396901552        4.1436089320
 C         -2.8439919662        4.0739268813        4.4763519022
 C         -2.5954947924        5.0414476503        3.5203393947
 C         -2.2051633618        4.7178428084        2.2282098224
 H         -4.0242333543        6.0151376032        0.6684668050
 H         -3.0738937933        7.4664866030        0.3494785127
 H         -3.5504868650        7.0730144016        1.9980513591
 H          0.1007337093        6.1274378050        1.8909206919
 H         -0.5937401655        7.5333579927        1.0828712795
 H         -1.0724237972        7.1413366029        2.7313134120
 H         -1.3231160545        7.2225002509       -0.9935247990
 H         -0.6640620759        6.4308375738       -3.2045625423
 H         -0.4902356534        3.9944239073       -3.6351191022
 H         -0.9678264354        2.4053999771       -1.8411788967
 H          0.5332826563        1.5495653521        0.6898967332
 H          2.3597623675        0.5490384375       -0.3012100947
 H          5.6548705135       -2.3535714765        1.0312635185
 H          7.9755624370       -1.6002774517        0.6625895921
 H          9.4130801711        0.2128907170        1.2372486315
 H         11.7258274241        0.9485865737        0.8523700113
 H         12.4335413321        1.6876929869       -1.3931433532
 H         10.8129562568        1.6775831086       -3.2539380464
 H          8.5054445904        0.9228839424       -2.8763408521
 H          6.5257097743        1.6125357218       -1.7498399532
 H          4.2341165745        0.8480399679       -1.4087816862
 H         -0.1244199421       -4.3844041556        1.3264301046
 H         -0.3170934305       -6.7584907949        1.9997726603
 H          1.6985804324       -8.1769279176        2.0900237262
 H          3.8987834502       -7.2323199643        1.5042419391
 H          4.0787786255       -4.8558288996        0.8253635176
 H         -1.2624230887       -2.1451214688       -0.5038890903
 H         -2.9443904315        0.5467030543       -2.4895838970
 H         -4.0801264639        1.1430074417       -4.5579747625
 H         -6.2000892436        0.0100168371       -5.1783409574
 H         -7.0991344142       -1.7351436057       -3.7297542283
 H         -8.2068021450       -2.1269733184       -1.8379826746
 H         -7.5346638377       -1.4041827223       -0.3756905672
 H         -8.0297455067       -3.0969982242       -0.3783488435
 H         -6.6271627671       -4.8158695769       -1.7119703533
 H         -6.7868666653       -3.8375676987       -3.1656153266
 H         -5.1847687102       -4.2677414091       -2.5667957787
 H         -6.5851691337       -4.5850044298        0.4608173061
 H         -5.3583451473       -5.0613964208        2.5147721358
 H         -3.3931182175       -3.6687735163        3.1165078126
 H         -2.6758104375       -1.8755499222        1.6378034304
 H         -3.6620285295        1.3725409578       -0.0623917301
 H         -2.1908355934        1.3467091411        2.6156418158
 H         -2.8804564083        1.9679250965        4.8759984464
 H         -3.1470719542        4.3611181003        5.4716247740
 H         -2.7105604743        6.0789067600        3.7959528183
