90
 energy: -145.219023031585 gnorm: 0.000074124228 xtb: 6.7.1 (edcfbbe)
N          -10.93892175904384        1.82091972089287       -0.61539978566826
C           -9.92047037924307        1.32161441495552       -0.44119421704551
C           -8.68670166755922        0.66990672939711       -0.21745534168654
N           -7.55562431048303        1.35227618088025       -0.43299366106107
C           -6.43900418487713        0.68982543155096       -0.21418891511289
C           -6.43850544305096       -0.69288651313138        0.21914411535619
N           -7.55465080698184       -1.35587136013162        0.43878539012012
C           -8.68621202235536       -0.67403222131566        0.22412241364322
C           -9.91952155619922       -1.32621556410629        0.44902430735962
N          -10.93764077917706       -1.82585122337392        0.62421485200622
C           -5.07224956355975       -1.12365382928957        0.34480131654111
C           -4.44060658245160       -2.29927590618328        0.70064401976897
C           -3.04986619384640       -2.34606333665115        0.61796464325525
C           -2.26073985785695       -1.26503217275726        0.23232811944287
C           -0.84503906670193       -1.49378619992748       -0.05481470653753
C           -0.01698104892297       -2.19929892941618        0.81742515326642
C            1.30482499974216       -2.42986403198939        0.50820959126562
C            1.84266408406817       -1.99651205012442       -0.70951185145714
N            3.17461617068278       -2.23231206753173       -1.01849199764701
C            3.89320446906252       -1.37859625028378       -1.86981089846188
C            4.83619894430563       -1.90661434166660       -2.75159242226684
C            5.56617254497791       -1.07010114250874       -3.57432300986248
C            5.36506630435604        0.30040939131851       -3.53828082559440
C            4.42446908458901        0.82901757663555       -2.66940163547154
C            3.69501294957960        0.00097767069403       -1.83804232472946
C            3.84150796886258       -3.34484197023713       -0.47146304935041
C            5.13375538786056       -3.20547239913517        0.03103211533234
C            5.79401247471652       -4.29834114977868        0.56017977595573
C            5.17623320839018       -5.53814670282465        0.60031449142636
C            3.89115863445800       -5.68035416522739        0.10153125402230
C            3.22552256246878       -4.59444226291661       -0.43556538155574
C            1.00056748732487       -1.32392583374902       -1.60241567580371
C           -0.30972325638391       -1.06777696190550       -1.27303014402570
C           -2.88036741532694       -0.00059836551254        0.00131549609416
C           -2.26157814471644        1.26416808748208       -0.23005509881169
C           -0.84579868576371        1.49363668075604        0.05617167998036
C           -0.30954278555009        1.06809764136510        1.27413372477425
C            1.00086830712994        1.32482449238566        1.60261401501677
C            1.84211087654414        1.99750806323669        0.70899460177385
N            3.17422835145853        2.23386083545754        1.01699607958512
C            3.89396609412938        1.38009892641886        1.86724305871039
C            3.69563152631703        0.00053601137830        1.83571055000360
C            4.42615899186473       -0.82760541830041        2.66601305599686
C            5.36804185151458       -0.29913990248160        3.53356511426451
C            5.56926625244942        1.07135541797292        3.56941420726341
C            4.83821572900257        1.90797752593966        2.74775856403811
C            3.83996519514174        3.34687435870394        0.46954595496771
C            3.22311465485831        4.59607632931500        0.43448528468029
C            3.88740260101910        5.68248622998375       -0.10325855503289
C            5.17199047636040        5.54117305950363       -0.60354905855034
C            5.79065306685109        4.30178413771230       -0.56420055072204
C            5.13174965924785        3.20842289378466       -0.03437883396712
C            1.30331539997447        2.43042849632281       -0.50844552926604
C           -0.01860555927368        2.19929934698101       -0.81675325520329
C           -3.05150231898734        2.34479391402049       -0.61517474135592
C           -4.44226786262080        2.29725582807867       -0.69700866586550
C           -5.07304935665281        1.12129048048979       -0.34077105696695
C           -4.27880304539211       -0.00097186206027        0.00177142782282
H           -5.00593347011289       -3.17168966582220        0.99021780908308
H           -2.55677110892493       -3.28753483071410        0.81150749165018
H           -0.40392361286694       -2.52991126389208        1.76986631223179
H            1.93678189869470       -2.94616823231531        1.21492085825909
H            4.99176932712251       -2.97496699410086       -2.78820069012882
H            6.29213301069540       -1.49324383804706       -4.25322913676667
H            5.93652504882216        0.95127376130014       -4.18274639613950
H            4.26589142018472        1.89660982726248       -2.62834482878422
H            2.96851520124055        0.42078119986013       -1.16009519022003
H            5.61099391676299       -2.23686037937046        0.00687322828902
H            6.79381491596434       -4.17828338330995        0.95080327302480
H            5.69362548011897       -6.38935427717573        1.01672973626110
H            3.40608819275342       -6.64529582542942        0.12231559011260
H            2.22777676889272       -4.70793583357782       -0.83411220847759
H            1.38177786294985       -1.01550511506642       -2.56406218659937
H           -0.94764130552019       -0.56418874887029       -1.98411559308574
H           -0.94679100308312        0.56433840949036        1.98569810583355
H            1.38284664373679        1.01674619814273        2.56406589325394
H            2.96811649271243       -0.41919433739201        1.15880880935892
H            4.26741979554784       -1.89517965326691        2.62513207058712
H            5.94037939615555       -0.95009365647973        4.17715595821210
H            6.29631925497637        1.49439741348412        4.24722546759000
H            4.99400459414118        2.97630459711819        2.78417428128473
H            2.22571052690113        4.70883473094990        0.83409652724554
H            3.40163017255415        6.64708579276062       -0.12346372649873
H            5.68833734696360        6.39276124750973       -1.02048444371084
H            6.79013682449434        4.18245955426111       -0.95586252332459
H            5.60968725437698        2.24014286669730       -0.01082018949477
H            1.93460907687308        2.94686226445691       -1.21565244552584
H           -0.40632500804845        2.52962899677492       -1.76897482263749
H           -2.55902464261530        3.28653730053947       -0.80896484010278
H           -5.00825436967644        3.16937652773453       -0.98617998675493
