90
 energy: -145.174842442582 gnorm: 0.000064267742 xtb: 6.7.1 (edcfbbe)
N          -10.96729725532245        1.39927763127395        1.35690455404923
C           -9.94777742648811        1.01343530378548        0.97983371791624
C           -8.73018430556200        0.52499182093878        0.50154294510226
N           -7.58613143997309        1.00440995611213        0.98272764353626
C           -6.46146333032414        0.53407052785037        0.51750529240023
C           -6.46185397186597       -0.51783922261662       -0.52954129916156
N           -7.58687316709628       -0.98501845234768       -0.99709057085600
C           -8.73057066795011       -0.50235315633010       -0.51830477646815
C           -9.94853748312182       -0.98694830245030       -0.99954496059334
N          -10.96833779379136       -1.36961805805481       -1.37908764862122
C           -5.10550924437182       -0.82877233463313       -0.83034354826634
C           -4.47057096160003       -1.71059272491358       -1.69726121200070
C           -3.08420821698355       -1.76996486861293       -1.66202323796350
C           -2.29136765346168       -0.98200628338006       -0.82586980291667
C           -0.85661107140764       -1.27554077782147       -0.76610354836235
C           -0.23478273033004       -1.53816150314598        0.45783233052002
C            1.09994741573652       -1.86860562395676        0.51953382379249
C            1.86716672229241       -1.94432084699337       -0.64807750843850
N            3.22261325082194       -2.26518174729864       -0.59661807545854
C            4.10309807555528       -1.70383146022124       -1.53000406513016
C            5.13530228046142       -2.46434708308186       -2.08201024176879
C            5.99238201033485       -1.90006322202201       -3.00691176984721
C            5.83138418692786       -0.58013022770172       -3.40016839504149
C            4.80612500347334        0.17811824396396       -2.85616467827400
C            3.95031915768100       -0.37342651050950       -1.92326934490186
C            3.70555134128105       -3.18029689210633        0.34479247501722
C            4.97295243757678       -3.00601600762921        0.90495569744873
C            5.45596638697058       -3.91601898827059        1.82499687976493
C            4.68790479983349       -5.00644227677054        2.20373333568924
C            3.42851220634938       -5.18305048767794        1.65090724561739
C            2.93698999809136       -4.28201609074216        0.72644740807418
C            1.24451844125007       -1.69926372636292       -1.87669446366638
C           -0.09389712938663       -1.38250615463408       -1.93088082922486
C           -2.90875474477965        0.00370652895443       -0.00289746295375
C           -2.29039573973198        0.98793934764399        0.82111724138101
C           -0.85487728093719        1.27816703285523        0.76371234821039
C           -0.09389371052915        1.38345877520466        1.92977129768576
C            1.24531086027722        1.69721010656871        1.87783344355756
C            1.87059198739820        1.94084224354571        0.65026571155090
N            3.22686271448633        2.25858834223551        0.60117449267133
C            4.10422896146529        1.69534428378123        1.53637596448239
C            3.94777533494428        0.36525518387497        1.92924863506104
C            4.80028057751775       -0.18809121841474        2.86409584479854
C            5.82588691368485        0.56800034158406        3.41044316833283
C            5.99059112827408        1.88757467706388        3.01752134645846
C            5.13679080463360        2.45367454510307        2.09069692785350
C            3.71368662057088        3.17275086039518       -0.33913799101388
C            2.94826127150726        4.27610320873597       -0.72237295977611
C            3.44373858302437        5.17628541012774       -1.64555363315888
C            4.70404830856812        4.99723070629538       -2.19549419957913
C            5.46898475873760        3.90514213401866       -1.81522661380588
C            4.98198196606325        2.99594175596753       -0.89649553553847
C            1.10517769345051        1.86682402445209       -0.51863495631051
C           -0.23039722291446        1.53937409991402       -0.45917674221789
C           -3.08273897565335        1.77771273055953        1.65603329430308
C           -4.46929920079503        1.72170686883360        1.68890191818840
C           -5.10488701822638        0.84149577567852        0.82082594048835
C           -4.30979364738336        0.00537931825917       -0.00406494693057
H           -5.03854114771181       -2.35061902158471       -2.35477864633689
H           -2.58770269695861       -2.49962784597169       -2.28644411228672
H           -0.81760642388210       -1.49511386873350        1.36537985186525
H            1.55768002154825       -2.07159565948075        1.47640245740864
H            5.24924315977255       -3.49851130330700       -1.79292898309324
H            6.78376084728758       -2.49878349808797       -3.43273250888403
H            6.49982944424683       -0.14584059314379       -4.12783125319080
H            4.67709145154985        1.20805564145457       -3.15286934644679
H            3.16008624146694        0.21768901086895       -1.48694709199173
H            5.56651587771283       -2.14963339720567        0.62264188897920
H            6.43549500767048       -3.76822618994710        2.25484798605656
H            5.06824289005849       -5.71581599287331        2.92292911235528
H            2.82823146533581       -6.03505007158518        1.93362909597815
H            1.96406633962665       -4.43352942991248        0.28289306793367
H            1.81622631763888       -1.78241644873808       -2.78886559195042
H           -0.56062664998208       -1.20190267337166       -2.88780147394204
H           -0.56262724278093        1.20391243985494        2.88591077430959
H            1.81564156313349        1.77910358971938        2.79097870515085
H            3.15726555436677       -0.22417550982634        1.49115142436348
H            4.66836667122302       -1.21774286423857        3.16051513295976
H            6.49173436871137        0.13233185909970        4.13966360490125
H            6.78226999347050        2.48462243685202        3.44512537371310
H            5.25354071189161        3.48760548149129        1.80190485752145
H            1.97465437851318        4.42956755125909       -0.28100437544978
H            2.84584292286220        6.02956320063192       -1.92948389986903
H            5.08750194759138        5.70599848735394       -2.91363445445679
H            6.44920247482257        3.75541875109797       -2.24283090733851
H            5.57315261842651        2.13829521861911       -0.61299179262909
H            1.56495964372396        2.06879766220269       -1.47473676793708
H           -0.81178291697242        1.49762363691379       -1.36770592446013
H           -2.58552607993193        2.50612114028218        2.28135583368281
H           -5.03683417634857        2.36303181197922        2.34552769130830
