  90
       -145.11061282
 N        -10.9751678390        1.4299641421        1.3705093445
 C         -9.9687971753        1.0280354086        0.9832970066
 C         -8.7538151611        0.5279813955        0.5008886372
 N         -7.6067171937        1.0040748468        0.9518880050
 C         -6.4752858694        0.5492804233        0.5117509850
 C         -6.4749959772       -0.5316433881       -0.5241148005
 N         -7.6058751409       -0.9928814859       -0.9588728509
 C         -8.7534134274       -0.5236736652       -0.5018262426
 C         -9.9672676154       -1.0346646805       -0.9756744935
 N        -10.9707359965       -1.4491503603       -1.3574044947
 C         -5.1199398759       -0.8413316262       -0.8156084013
 C         -4.4874369294       -1.7407262401       -1.6664828500
 C         -3.1019053511       -1.7967786491       -1.6310127306
 C         -2.3091097995       -0.9924405429       -0.8106585921
 C         -0.8732731338       -1.2799714212       -0.7540380164
 C         -0.2418443172       -1.5171044326        0.4685531792
 C          1.0979054410       -1.8278496857        0.5278469939
 C          1.8600323955       -1.9100883100       -0.6411655778
 N          3.2244008272       -2.2011283673       -0.5936065691
 C          4.0857587324       -1.6414060953       -1.5457402202
 C          5.1309179973       -2.3906187133       -2.0863587702
 C          5.9693019718       -1.8301890833       -3.0302055975
 C          5.7759873425       -0.5254971628       -3.4555240921
 C          4.7371874146        0.2213594045       -2.9238958175
 C          3.9014541422       -0.3260255970       -1.9705985616
 C          3.7374989502       -3.0723475067        0.3724593005
 C          5.0059211203       -2.8523389150        0.9117003204
 C          5.5151147896       -3.7137350473        1.8636697666
 C          4.7717374744       -4.7997260299        2.2973126753
 C          3.5126847087       -5.0237431048        1.7632874355
 C          2.9967652416       -4.1730074747        0.8054995312
 C          1.2263221871       -1.6989277263       -1.8684140190
 C         -0.1164353117       -1.3984289836       -1.9199457011
 C         -2.9244726123        0.0070767571       -0.0041400576
 C         -2.3083962151        1.0044638573        0.8048147591
 C         -0.8722146032        1.2898835956        0.7497615940
 C         -0.1157329048        1.4099434170        1.9157506656
 C          1.2275472354        1.7076661406        1.8638432433
 C          1.8629408780        1.9137178037        0.6364434327
 N          3.2286982183        2.1977773715        0.5905665441
 C          4.0831432445        1.6371658830        1.5491430120
 C          3.8948237313        0.3216809921        1.9716773355
 C          4.7229932234       -0.2267083193        2.9310119905
 C          5.7579155155        0.5195944537        3.4710696276
 C          5.9552803582        1.8244966909        3.0479043380
 C          5.1244553844        2.3857817398        2.0978643400
 C          3.7529105889        3.0626436758       -0.3748631112
 C          3.0215359964        4.1649594599       -0.8195500602
 C          3.5530156806        5.0121064001       -1.7722237606
 C          4.8180344587        4.7826872798       -2.2899206330
 C          5.5511572045        3.6934976814       -1.8464943588
 C          5.0264976209        2.8357823405       -0.8997423019
 C          1.1010710381        1.8312945439       -0.5326547189
 C         -0.2394285088        1.5236788960       -0.4729260715
 C         -3.1015502448        1.8084644772        1.6252312714
 C         -4.4873104911        1.7553773205        1.6574407633
 C         -5.1202399245        0.8588795067        0.8037016295
 C         -4.3253240587        0.0086142065       -0.0056549190
 H         -5.0541778456       -2.3935806738       -2.3111200269
 H         -2.6021864824       -2.5360843147       -2.2416382468
 H         -0.8184017391       -1.4665322674        1.3797522339
 H          1.5624950166       -2.0125355751        1.4855350959
 H          5.2715554802       -3.4137485792       -1.7702013691
 H          6.7717492082       -2.4209577280       -3.4455959823
 H          6.4288042850       -0.0946006103       -4.1987636660
 H          4.5813183478        1.2405340609       -3.2452219162
 H          3.0993763332        0.2562528627       -1.5453676149
 H          5.5808096058       -1.9974186983        0.5875203051
 H          6.4961097443       -3.5288704857        2.2752613259
 H          5.1713149901       -5.4683890530        3.0439026411
 H          2.9306598821       -5.8731589434        2.0877407286
 H          2.0228379809       -4.3603556177        0.3778723998
 H          1.7956885833       -1.7864712659       -2.7819434015
 H         -0.5888493803       -1.2369112704       -2.8777709487
 H         -0.5884791340        1.2520350842        2.8740024980
 H          1.7965542423        1.7966060456        2.7774577668
 H          3.0952936140       -0.2594746204        1.5401963619
 H          4.5639890923       -1.2459291406        3.2507937730
 H          6.4046192394        0.0881228918        4.2193182709
 H          6.7545111157        2.4149350832        3.4701928847
 H          5.2672615445        3.4094829781        1.7838926087
 H          2.0433456015        4.3575159683       -0.4040076755
 H          2.9785757411        5.8635758329       -2.1050841645
 H          5.2300777935        5.4493020456       -3.0315875634
 H          6.5360261404        3.5032945673       -2.2463535750
 H          5.5932345082        1.9782151201       -0.5683025343
 H          1.5663497496        2.0123794898       -1.4906900732
 H         -0.8158962259        1.4725306898       -1.3841232582
 H         -2.6018156868        2.5454636624        2.2386355476
 H         -5.0538013264        2.4081524157        2.3023947590
