90
 energy: -145.174711934484 gnorm: 0.000050445093 xtb: 6.7.1 (edcfbbe)
N          -10.93984909155748        1.87137654551961       -0.51554987669684
C           -9.91934057491964        1.35321984419278       -0.37195562378555
C           -8.70121488918360        0.69550508493776       -0.18963489670353
N           -7.55759687759677        1.35071721586391       -0.37146986153638
C           -6.43228498464819        0.71434211535399       -0.19487443658367
C           -6.43179947797812       -0.71744097156151        0.20003131006592
N           -7.55667815992833       -1.35438810977195        0.37731595448632
C           -8.70074181772589       -0.69975655749908        0.19619309064971
C           -9.91841535119198       -1.35807258537880        0.37935013906801
N          -10.93857154995144       -1.87671248012235        0.52371921347719
C           -5.07546585848593       -1.13637444100940        0.30860818889670
C           -4.43484163425377       -2.32931854700266        0.62629903632758
C           -3.04867853981467       -2.36520375523192        0.55033417794780
C           -2.26167854932473       -1.26504115891923        0.20547675753332
C           -0.83895992943084       -1.47683164370359       -0.06805245273118
C           -0.01124686800076       -2.17055155075664        0.81654552821206
C            1.31057684901094       -2.40693022920651        0.51321118395807
C            1.85124371579875       -1.98280622463607       -0.70782600066414
N            3.18492666018441       -2.23190323707043       -1.01090874183779
C            3.91783463945166       -1.38039396418234       -1.84521930688671
C            4.88271823425049       -1.90714716621858       -2.70715942892483
C            5.62441718666820       -1.06870536072243       -3.51611065132145
C            5.41813253895226        0.30200653886605       -3.48395859537470
C            4.45775564559893        0.82933355798247       -2.63491578473513
C            3.71187538176233        0.00007029054283       -1.82063647497815
C            3.82438698053279       -3.36184881098348       -0.47473148352785
C            5.12382099979253       -3.25771865170290        0.02259490998384
C            5.75449646294964       -4.36870368352736        0.54870500250928
C            5.10255445472218       -5.59166490283029        0.58750229418353
C            3.81168539565051       -5.69897446077144        0.09286843898360
C            3.17233790811571       -4.59468004405204       -0.43723560734656
C            1.01677150523636       -1.31007356311094       -1.60843542066787
C           -0.29630427075447       -1.05722361356132       -1.28725560184084
C           -2.88440919341562       -0.00064783169276        0.00149134872076
C           -2.26243833351739        1.26404990561535       -0.20291667819629
C           -0.83960304034647        1.47650929618935        0.06951017741931
C           -0.29573902906111        1.05710975255774        1.28824333389319
C            1.01749872376880        1.31054027820520        1.60832702381099
C            1.85090046613313        1.98367107928049        0.70703786485124
N            3.18473863046535        2.23335014970111        1.00899541314999
C            3.91876744870681        1.38212147119862        1.84260171564423
C            3.71335997999137        0.00157728798142        1.81816305658550
C            4.46033871444497       -0.82739932753359        2.63172925304624
C            5.42126791693387       -0.29969504985756        3.47991106684194
C            5.62701052324693        1.07110150474129        3.51191245334457
C            4.88422119728150        1.90925620518972        2.70366176654192
C            3.82319608076655        3.36363789790035        0.47232538666024
C            3.17056784140322        4.59617977858569        0.43564287771516
C            3.80887845163405        5.70080898997071       -0.09501352206007
C            5.09927336074335        5.59410429784212       -0.59100965137908
C            5.75179607268109        4.37142860962407       -0.55300158572958
C            5.12216336024218        3.26011682090773       -0.02632602391097
C            1.30902722218495        2.40760842464362       -0.51352017621895
C           -0.01294625388671        2.17063527674522       -0.81575493540417
C           -3.05021443809997        2.36382690357391       -0.54722724924807
C           -4.43640525067172        2.32724482644547       -0.62232452833597
C           -5.07622953513429        1.13397277311101       -0.30425084914231
C           -4.28316360353142       -0.00099747274092        0.00194172355437
H           -4.99969682460177       -3.21086049823193        0.88789817064915
H           -2.55059431279446       -3.30942939561854        0.72088031139076
H           -0.40676369022811       -2.49829426916746        1.76626530378485
H            1.94059908665266       -2.91609679185990        1.22682035195761
H            5.03751254251298       -2.97509970299672       -2.74543340737520
H            6.36293091494855       -1.48935680924690       -4.18218835279675
H            5.99961959642572        0.95380476325057       -4.11786744831810
H            4.29550635912210        1.89617505725639       -2.59910243332718
H            2.96973060569864        0.41648422759378       -1.15845653867907
H            5.62506206137212       -2.30162910022738        0.00325008805908
H            6.75746615213613       -4.27726133828246        0.93786069785815
H            5.59764927030877       -6.45762470630344        0.99988061075077
H            3.30187801941983       -6.65064262231671        0.11215924369613
H            2.17212646469601       -4.68067255115507       -0.83565880589877
H            1.40127356119702       -1.01108774961360       -2.57171219551749
H           -0.93365849616978       -0.55920971965044       -2.00237365184158
H           -0.93225178074736        0.55878121361460        2.00388877790014
H            1.40294815213446        1.01169634421084        2.57126943079386
H            2.97077723263428       -0.41512757899003        1.15665838442377
H            4.29850104921305       -1.89430658151138        2.59602797701560
H            6.00360761363084       -0.95126972658688        4.11326625257803
H            6.36595924766784        1.49204712993526        4.17732090197573
H            5.03860654256973        2.97727135612351        2.74182663790682
H            2.17072165591042        4.68167908797313        0.83508950247031
H            3.29863873363338        6.65225682794872       -0.11367181849847
H            5.59355874769204        6.46032078056652       -1.00382107846252
H            6.75440764561591        4.28047066353385       -0.94319249613398
H            5.62384922022922        2.30424929068760       -0.00756762290484
H            1.93821693156293        2.91709326887265       -1.22763694268127
H           -0.40940435799588        2.49822153232686       -1.76513566750476
H           -2.55271494471151        3.30830435486538       -0.71808792865307
H           -5.00186783598581        3.20850634959885       -0.88355576469100
