  55
  -90.7385148623000       0.223279590879100      !
 C         -5.1384814438       -1.6986291691        3.1955027609
 C         -3.7565948570       -1.6987235725        3.2429312808
 C         -3.0179423933       -1.2561376011        2.1583734955
 C         -3.6557519675       -0.8083472166        1.0065431853
 C         -5.0592937913       -0.8077518823        0.9679914123
 C         -5.7893954631       -1.2510117728        2.0556606246
 O         -5.7583753431       -0.3732661758       -0.1280406025
 C         -5.0391055174        0.0663798788       -1.2088993145
 C         -5.7495147214        0.4943651547       -2.3156195382
 C         -5.0784959166        0.9464668088       -3.4418697611
 C         -3.6960330579        0.9663156733       -3.4565552887
 C         -2.9769766567        0.5385891874       -2.3529994157
 C         -3.6350943512        0.0859546762       -1.2145425030
 N         -2.9460328049       -0.3526120863       -0.0939046703
 C         -1.5235037013       -0.3739464180       -0.0883043381
 C         -0.8498528097       -1.5632832971       -0.4004729659
 C          0.5178667142       -1.5710027410       -0.4031395265
 C          1.2518506935       -0.4116538855       -0.0962693135
 C          0.5757659713        0.7918049405        0.2299785485
 C         -0.8256741938        0.7716423977        0.2201965216
 C          1.3396759874        1.9691650490        0.5562612300
 C          0.7476898315        3.1956774356        0.8974203094
 C          1.5055171914        4.2978733672        1.2080903922
 C          2.8997661749        4.2242454551        1.1911656089
 C          3.5110765355        3.0431242380        0.8614466843
 C          2.7536583048        1.9047906600        0.5410821237
 C          3.4348711999        0.6936262670        0.2015349790
 N          4.7543262755        0.6313509108        0.1796092603
 C          5.4094173656       -0.4864194700       -0.1365541105
 C          6.7993732851       -0.5617221165       -0.1659391068
 C          7.4399973470       -1.7412467134       -0.5027231112
 C          6.7036303347       -2.8734501768       -0.8178894944
 C          5.3210995097       -2.8370958864       -0.7986820409
 C          4.6404655003       -1.6677590565       -0.4644276059
 N          3.3113774012       -1.5906283093       -0.4361953152
 C          2.6766589710       -0.4711112630       -0.1200861940
 H         -5.7149282227       -2.0426521999        4.0394302760
 H         -3.2425856675       -2.0426172927        4.1269609693
 H         -1.9398701513       -1.2531903034        2.1979473123
 H         -6.8655085244       -1.2371339760        1.9910703871
 H         -6.8265399667        0.4644530705       -2.2765601158
 H         -5.6397093228        1.2776363120       -4.3010756605
 H         -3.1660430854        1.3142186440       -4.3295889216
 H         -1.8984079908        0.5502957565       -2.3679245845
 H         -1.4177118981       -2.4505098024       -0.6364223087
 H          1.0716919794       -2.4654286807       -0.6431774354
 H         -1.3897645375        1.6606795293        0.4539361428
 H         -0.3267062434        3.2870942613        0.9208789665
 H          1.0206431849        5.2275863945        1.4674147006
 H          3.4890306276        5.0948858760        1.4367533302
 H          4.5864131485        2.9538345439        0.8392522425
 H          7.3607236403        0.3259726236        0.0808705825
 H          8.5185716420       -1.7760833073       -0.5190124263
 H          7.2086335807       -3.7905387602       -1.0809918298
 H          4.7376997502       -3.7114940340       -1.0411785874
  55
  -90.7384927810000       0.218122850651866      !
 C         -5.1411414657       -0.6688111188        3.3610363578
 C         -3.7594346625       -0.6890731493        3.4044313645
 C         -3.0189037346       -0.5801918277        2.2395133496
 C         -3.6509006081       -0.4416541176        1.0077834309
 C         -5.0545336707       -0.4446930283        0.9721190261
 C         -5.7875461481       -0.5523509125        2.1403765351
 O         -5.7567999729       -0.3551147248       -0.2008593372
 C         -5.0410832204       -0.2427794996       -1.3636093590
 C         -5.7585721832       -0.1407110692       -2.5418519444
 C         -5.0958731297       -0.0022841196       -3.7515827585
 C         -3.7143675490        0.0462887696       -3.7742194267
 C         -2.9892386470       -0.0570167546       -2.5990041583
 C         -3.6375056075       -0.2192689347       -1.3787716724
 N         -2.9409779561       -0.3276677178       -0.1814156622
 C         -1.5227865395       -0.3465651969       -0.1802770513
 C         -0.8442445722       -1.4422920335       -0.7355563634
 C          0.5229786902       -1.4508849842       -0.7324978861
 C          1.2560718373       -0.3877626766       -0.1757811515
 C          0.5774386963        0.7189319958        0.3948863767
 C         -0.8233091595        0.7067865768        0.3667468644
 C          1.3391839925        1.8005473081        0.9662195179
 C          0.7447726228        2.9168190056        1.5757254885
 C          1.5002878891        3.9323880855        2.1083034259
 C          2.8945366153        3.8782759454        2.0548953022
 C          3.5082216534        2.8011449810        1.4711918569
 C          2.7532714179        1.7511244885        0.9236784066
 C          3.4367880095        0.6403326099        0.3363811599
 N          4.7563007291        0.5929425983        0.2880402964
 C          5.4134496011       -0.4358238997       -0.2484971023
 C          6.8034265449       -0.4955604978       -0.3044811280
 C          7.4458195497       -1.5848388376       -0.8666796089
 C          6.7112687650       -2.6413239530       -1.3846836798
 C          5.3286188672       -2.6174556057       -1.3473314599
 C          4.6463123494       -1.5370381309       -0.7911347768
 N          3.3174880889       -1.4759554779       -0.7345406002
 C          2.6805191606       -0.4417801464       -0.2046959349
 H         -5.7192961691       -0.7508564988        4.2675413018
 H         -3.2457550666       -0.7924540378        4.3475925791
 H         -1.9416526086       -0.6081020583        2.2813145054
 H         -6.8634900760       -0.5484360491        2.0709470555
 H         -6.8350740288       -0.1682504681       -2.4895316520
 H         -5.6620174886        0.0747937280       -4.6660728887
 H         -3.1891125105        0.1683346641       -4.7086916358
 H         -1.9122314436       -0.0074038301       -2.6232501969
 H         -1.4092963383       -2.2614693370       -1.1540319112
 H          1.0776712917       -2.2765749524       -1.1506137094
 H         -1.3864503303        1.5318204147        0.7732864384
 H         -0.3296337557        2.9888928704        1.6365279600
 H          1.0136020579        4.7779442803        2.5717962192
 H          3.4820901167        4.6812180766        2.4741789098
 H          4.5835849729        2.7280130126        1.4179515057
 H          7.3636946273        0.3316716138        0.1031773154
 H          8.5242980751       -1.6083868477       -0.9001078949
 H          7.2176374337       -3.4889756987       -1.8210108826
 H          4.7460926575       -3.4319306195       -1.7494684943
  55
  -90.7381307154000       0.148698756203634      !
 C         -5.0536493981       -2.4162222343        2.9071088665
 C         -3.6724443322       -2.3758826247        2.9470394140
 C         -2.9614355871       -1.6941991171        1.9738310301
 C         -3.6224038421       -1.0482920970        0.9334950567
 C         -5.0258385339       -1.0692627192        0.9198680187
 C         -5.7296662315       -1.7530580073        1.8950143343
 O         -5.7567204460       -0.4144526317       -0.0356326376
 C         -5.0699995412        0.2807334705       -0.9955640652
 C         -5.8207670466        0.9502542570       -1.9453292065
 C         -5.1936911985        1.6524422713       -2.9624312560
 C         -3.8131721295        1.6667102572       -3.0319571599
 C         -3.0551600357        1.0003988658       -2.0838303011
 C         -3.6669230277        0.3128320283       -1.0401215249
 N         -2.9397355309       -0.3619552052       -0.0652202420
 C         -1.5232709280       -0.3741424817       -0.0930381301
 C         -0.8459887907       -1.5873240735       -0.2942297136
 C          0.5210098140       -1.5980174747       -0.2904392017
 C          1.2573760703       -0.4133923944       -0.1118874627
 C          0.5812047144        0.8212973248        0.0580983300
 C         -0.8194630880        0.7979519207        0.0812457024
 C          1.3460414600        2.0335350671        0.2071816663
 C          0.7550849890        3.3016123529        0.3239103766
 C          1.5134978769        4.4383365731        0.4601305588
 C          2.9072293706        4.3584714477        0.4873873085
 C          3.5176570697        3.1372204505        0.3712213691
 C          2.7597976872        1.9637496633        0.2265318775
 C          3.4400028531        0.7126425148        0.0931851056
 N          4.7584853285        0.6390260157        0.1321537610
 C          5.4122287718       -0.5166638394        0.0109674515
 C          6.8009333025       -0.6058674303        0.0564030309
 C          7.4394050909       -1.8271058957       -0.0714036035
 C          6.7020816036       -2.9882336160       -0.2498923198
 C          5.3207104006       -2.9388851521       -0.3033742336
 C          4.6423942634       -1.7280132059       -0.1781711390
 N          3.3150955707       -1.6372120043       -0.2261648564
 C          2.6811216132       -0.4814461049       -0.0918087259
 H         -5.6087633181       -2.9509937018        3.6612150575
 H         -3.1357924109       -2.8732344290        3.7399196281
 H         -1.8847088924       -1.6567598000        2.0221564332
 H         -6.8066975710       -1.7513777474        1.8441810177
 H         -6.8952957673        0.9039782051       -1.8720798858
 H         -5.7856389355        2.1737230965       -3.6977566990
 H         -3.3135532033        2.1956865895       -3.8286160323
 H         -1.9792718468        1.0065180498       -2.1560255275
 H         -1.4122208502       -2.4939208834       -0.4454945652
 H          1.0728863066       -2.5145454714       -0.4307408075
 H         -1.3783112416        1.7058826719        0.2449210324
 H         -0.3187989550        3.3994741187        0.3001577584
 H          1.0295278836        5.4002484306        0.5447686581
 H          3.4970992835        5.2561890618        0.5963141966
 H          4.5926676710        3.0429985941        0.3837178984
 H          7.3633794800        0.3042883102        0.1956841092
 H          8.5169215580       -1.8719843733       -0.0295848222
 H          7.2051340502       -3.9383281544       -0.3472376682
 H          4.7359571369       -3.8354457521       -0.4393080420
  55
  -90.7379829564000       0.127175074609887      !
 C         -5.2103307353       -1.4674601742        3.2479929588
 C         -3.8406377126       -1.6560674082        3.2646787282
 C         -3.0767070456       -1.3445177495        2.1523725418
 C         -3.6771471466       -0.8427750452        1.0028621427
 C         -5.0689952411       -0.6582280710        0.9925293326
 C         -5.8238530417       -0.9671161657        2.1094324029
 O         -5.7317393532       -0.1645778796       -0.1011464978
 C         -4.9850293499        0.1667326750       -1.2018359121
 C         -5.6557626078        0.6795588000       -2.2973085765
 C         -4.9551215433        1.0304893967       -3.4414222377
 C         -3.5832683592        0.8639006192       -3.4856363298
 C         -2.9037812981        0.3538868807       -2.3921899468
 C         -3.5912206181        0.0026430518       -1.2353579840
 N         -2.9399989609       -0.5156839597       -0.1254580345
 C         -1.5172936965       -0.5307362959       -0.0848646687
 C         -0.8139708571       -1.7077051423       -0.3736872846
 C          0.5546724728       -1.6813775967       -0.3660685616
 C          1.2595703545       -0.5015309478       -0.0686855376
 C          0.5512489694        0.6839932227        0.2551043971
 C         -0.8477958034        0.6310085341        0.2271759520
 C          1.2791972727        1.8816026976        0.5879621073
 C          0.6509375328        3.0803529314        0.9608119540
 C          1.3756399350        4.2046804805        1.2708524958
 C          2.7708407904        4.1821639395        1.2192024928
 C          3.4167789915        3.0271910313        0.8638714429
 C          2.6934830734        1.8653400015        0.5488172622
 C          3.4080339092        0.6784217224        0.1931246515
 N          4.7279540746        0.6642710067        0.1426819800
 C          5.4169789965       -0.4291411087       -0.1850401614
 C          6.8077585058       -0.4514972625       -0.2460399782
 C          7.4848921058       -1.6065749174       -0.5958504532
 C          6.7844126544       -2.7662716081       -0.8927263637
 C          5.4019874370       -2.7825777948       -0.8407527818
 C          4.6851542651       -1.6395155656       -0.4918673165
 N          3.3547659721       -1.6116365991       -0.4333562903
 C          2.6857010425       -0.5146498923       -0.1092747517
 H         -5.8060223574       -1.7040037679        4.1152249679
 H         -3.3555582508       -2.0438803182        4.1469451837
 H         -2.0070528432       -1.4841659568        2.1689045342
 H         -6.8891708111       -0.8061841142        2.0688783290
 H         -6.7256338877        0.7971887205       -2.2346550422
 H         -5.4855204791        1.4300749450       -4.2910482801
 H         -3.0304980973        1.1305666850       -4.3729889225
 H         -1.8334230242        0.2245370117       -2.4283255269
 H         -1.3567949310       -2.6111858972       -0.6060895855
 H          1.1308955464       -2.5644068021       -0.5956858157
 H         -1.4349443147        1.5097887001        0.4430203943
 H         -0.4250530073        3.1309851712        1.0142664901
 H          0.8637375982        5.1115442055        1.5574703783
 H          3.3337640480        5.0709646271        1.4618582458
 H          4.4938214354        2.9762296272        0.8192894887
 H          7.3403854530        0.4577132772       -0.0139503243
 H          8.5634710414       -1.6000236943       -0.6374322627
 H          7.3174947607       -3.6640263961       -1.1669015697
 H          4.8471212326       -3.6792610916       -1.0693663576
  55
  -90.7379613937000       0.124306108370883      !
 C         -5.2307940860       -0.3382096490        3.3323533415
 C         -3.8526971360       -0.4155015736        3.4117057220
 C         -3.0823062012       -0.4268558522        2.2612110344
 C         -3.6783225136       -0.3519447516        1.0060141047
 C         -5.0800240777       -0.3074223407        0.9362740279
 C         -5.8433610611       -0.2929254886        2.0900365796
 O         -5.7536897383       -0.2906099881       -0.2560448350
 C         -5.0100895294       -0.2995055254       -1.4061693737
 C         -5.7017863190       -0.2787531286       -2.6041744890
 C         -5.0131358751       -0.2568609811       -3.8068252006
 C         -3.6307553597       -0.2362458335       -3.8020434401
 C         -2.9320664463       -0.2582799651       -2.6066792542
 C         -3.6063926733       -0.3136458719       -1.3905876592
 N         -2.9374534384       -0.3503540383       -0.1712412184
 C         -1.5217444655       -0.3831979403       -0.1382141645
 C         -0.8393949096       -1.4796781088       -0.6888748899
 C          0.5277684636       -1.4831567222       -0.6920758648
 C          1.2597082570       -0.4221234838       -0.1300697395
 C          0.5780987049        0.6671184368        0.4695294886
 C         -0.8219948040        0.6618996419        0.4259213665
 C          1.3371446943        1.7285011990        1.0810915245
 C          0.7405139452        2.8049812096        1.7562733215
 C          1.4939294902        3.7983034337        2.3322207277
 C          2.8877454726        3.7613021425        2.2571813693
 C          3.5035450740        2.7218248912        1.6108315775
 C          2.7508987741        1.6935748584        1.0203994740
 C          3.4362531769        0.6194249528        0.3705655158
 N          4.7545179735        0.5978500076        0.2842030819
 C          5.4132572953       -0.3914617391       -0.3200719604
 C          6.8013578405       -0.4178946249       -0.4261802582
 C          7.4455451113       -1.4622601594       -1.0662600364
 C          6.7146488641       -2.5068189689       -1.6125869970
 C          5.3342029547       -2.5173218530       -1.5231251261
 C          4.6500656592       -1.4826565386       -0.8878273778
 N          3.3231459092       -1.4544992408       -0.7809227767
 C          2.6836547850       -0.4546485728       -0.1915409769
 H         -5.8320720865       -0.3230828662        4.2273026711
 H         -3.3648419632       -0.4697161574        4.3725501829
 H         -2.0089957999       -0.5008122879        2.3347719606
 H         -6.9162033559       -0.2514014648        1.9918067642
 H         -6.7794585569       -0.2758396783       -2.5718671995
 H         -5.5587727910       -0.2458522876       -4.7368358811
 H         -3.0833969870       -0.2003651934       -4.7311369009
 H         -1.8543640022       -0.2271197857       -2.6149276380
 H         -1.4015537143       -2.3013994052       -1.1061890788
 H          1.0829834816       -2.3027461227       -1.1213824845
 H         -1.3836106841        1.4902478466        0.8283675269
 H         -0.3335484918        2.8600194998        1.8390713393
 H          1.0059774027        4.6121809670        2.8481466405
 H          3.4735402643        4.5467036327        2.7107575776
 H          4.5787935074        2.6613178277        1.5412784793
 H          7.3584121336        0.4004340043        0.0030250130
 H          8.5224529977       -1.4593745263       -1.1394386389
 H          7.2220810445       -3.3181351828       -2.1121175595
 H          4.7548257761       -3.3229952782       -1.9466805952
  55
  -90.7376412068000       8.858185267793192E-002 !
 C         -4.9626356322       -0.4691445291        3.3995296651
 C         -3.5805629159       -0.4653378300        3.3762523338
 C         -2.8981194913       -0.4085141218        2.1729213765
 C         -3.5866191467       -0.3424598488        0.9650438603
 C         -4.9895052604       -0.3866580139        0.9994351563
 C         -5.6654595999       -0.4407958931        2.2056898901
 O         -5.7504383723       -0.3967039455       -0.1391364826
 C         -5.0961384997       -0.3413128092       -1.3408828554
 C         -5.8758725092       -0.3570762113       -2.4835161393
 C         -5.2830095573       -0.2702385219       -3.7332001178
 C         -3.9095573273       -0.1455511815       -3.8303715744
 C         -3.1227836246       -0.1328411886       -2.6907837810
 C         -3.6976049360       -0.2568682447       -1.4295273220
 N         -2.9369295057       -0.2655321200       -0.2649551788
 C         -1.5225851440       -0.2584224737       -0.3234185866
 C         -0.8419103901       -1.3132381179       -0.9521501420
 C          0.5253720639       -1.3181504791       -0.9559518492
 C          1.2601846620       -0.3035524470       -0.3168929478
 C          0.5812305366        0.7696151120        0.3137060997
 C         -0.8186490149        0.7675979599        0.2709936469
 C          1.3403272311        1.7935665083        0.9861637544
 C          0.7440288522        2.8750180812        1.6538257422
 C          1.4969251870        3.8224481103        2.3030580369
 C          2.8903785928        3.7329521868        2.3120919799
 C          3.5057703629        2.6902800385        1.6705957666
 C          2.7531640666        1.7090481085        1.0046648094
 C          3.4369738385        0.6259109422        0.3686938795
 N          4.7546207328        0.5338134182        0.3987750387
 C          5.4124551255       -0.4769660451       -0.1690511156
 C          6.7989917842       -0.5946673118       -0.1228024275
 C          7.4419024812       -1.6645254889       -0.7206017215
 C          6.7111713898       -2.6408474879       -1.3812913666
 C          5.3318291918       -2.5582891308       -1.4474788243
 C          4.6487023428       -1.4988647652       -0.8534757106
 N          3.3217913985       -1.3921703857       -0.8773198034
 C          2.6833490777       -0.3856061105       -0.2986552953
 H         -5.4959406381       -0.5057468892        4.3359386922
 H         -3.0193716148       -0.5083920352        4.2967774949
 H         -1.8202014584       -0.4228908468        2.1713893403
 H         -6.7431207367       -0.4655995720        2.1855992516
 H         -6.9453922607       -0.4338203173       -2.3708026311
 H         -5.8967325267       -0.2881674981       -4.6196562543
 H         -3.4387641719       -0.0545393204       -4.7968909558
 H         -2.0537308746       -0.0210185084       -2.7770700835
 H         -1.4040637083       -2.1117525454       -1.4123078330
 H          1.0784188436       -2.1152590747       -1.4282271306
 H         -1.3791704178        1.5720295570        0.7204544807
 H         -0.3299333094        2.9738338470        1.6680919704
 H          1.0086017236        4.6409354911        2.8112818951
 H          3.4758446525        4.4813999686        2.8247406775
 H          4.5803782403        2.5910544152        1.6624990043
 H          7.3559364784        0.1709832876        0.3945086218
 H          8.5178791310       -1.7350152165       -0.6711773569
 H          7.2179857651       -3.4722348519       -1.8473590463
 H          4.7527363339       -3.3115707132       -1.9587458907
  55
  -90.7374165027000       6.983576660669694E-002 !
 C         -5.2993156839       -2.4695221451        2.7972349134
 C         -3.9256611969       -2.4398466245        2.9506305662
 C         -3.1332864224       -1.7433837665        2.0534330265
 C         -3.7024486363       -1.0716155948        0.9757632391
 C         -5.1010959287       -1.0737185511        0.8541134556
 C         -5.8864783180       -1.7744626255        1.7518779888
 O         -5.7502723226       -0.3815619891       -0.1332288636
 C         -4.9841228947        0.3123138481       -1.0314753787
 C         -5.6549192927        1.0105056909       -2.0201685422
 C         -4.9468733945        1.7067059196       -2.9865164912
 C         -3.5649866227        1.6792949473       -2.9699078783
 C         -2.8877885733        0.9853791145       -1.9816769498
 C         -3.5811469516        0.3125643215       -0.9796132407
 N         -2.9364033298       -0.3779981992        0.0444931457
 C         -1.5224138605       -0.4083230222        0.1002649118
 C         -0.8405373069       -1.6289949356       -0.0272494218
 C          0.5268134916       -1.6343909225       -0.0211299235
 C          1.2606377489       -0.4385604152        0.0752287588
 C          0.5803861465        0.7985262714        0.2058466531
 C         -0.8193414908        0.7698307010        0.2398143395
 C          1.3375405437        2.0232306445        0.2659449045
 C          0.7391367773        3.2894732873        0.3633566040
 C          1.4894836424        4.4393740572        0.3841125206
 C          2.8824204007        4.3753102882        0.3113147122
 C          3.5000633369        3.1556221332        0.2208499759
 C          2.7501251016        1.9683655159        0.1951787955
 C          3.4361206119        0.7189570469        0.0789808391
 N          4.7544032579        0.6634109401        0.0104586563
 C          5.4144467920       -0.4875506758       -0.1179133917
 C          6.8021517198       -0.5544692657       -0.2089880840
 C          7.4475039453       -1.7708027580       -0.3485864971
 C          6.7180238594       -2.9493735980       -0.3984002089
 C          5.3375853646       -2.9225841164       -0.3112345475
 C          4.6521585646       -1.7171383822       -0.1736608977
 N          3.3245261614       -1.6460528531       -0.1026437790
 C          2.6841921740       -0.4925200697        0.0191203136
 H         -5.9174759807       -3.0178931014        3.4900341950
 H         -3.4590345658       -2.9579804710        3.7739931705
 H         -2.0641608430       -1.7146871999        2.1908610271
 H         -6.9559515820       -1.7578514126        1.6160203642
 H         -6.7328305114        0.9902992831       -2.0167631105
 H         -5.4759915847        2.2535365898       -3.7504580268
 H         -2.9998719644        2.1975207240       -3.7290008581
 H         -1.8101486349        0.9604537132       -1.9925559089
 H         -1.4014742377       -2.5442635491       -0.1412009475
 H          1.0808835927       -2.5552953719       -0.1172163414
 H         -1.3806225347        1.6827341078        0.3619060197
 H         -0.3345915275        3.3755105860        0.4180627216
 H          0.9994731339        5.3994169162        0.4539202100
 H          3.4656491496        5.2837659516        0.3244609578
 H          4.5744183396        3.0728733081        0.1618449369
 H          7.3580593478        0.3694394583       -0.1689620582
 H          8.5243185316       -1.7978189617       -0.4178877926
 H          7.2264701567       -3.8954313212       -0.5070133335
 H          4.7594707124       -3.8329697688       -0.3486921442
