  55
  -91.0536126200000       0.147851804978178      !
 C         -5.1399433236       -2.2578597007       -2.5803607274
 C         -3.7582147534       -2.2801493688       -2.6220344059
 C         -3.0180294169       -1.4225707120       -1.8258185471
 C         -3.6504046676       -0.5298507817       -0.9662116565
 C         -5.0540444386       -0.4994998229       -0.9477408182
 C         -5.7867112036       -1.3604735028       -1.7450154593
 O         -5.7566471126        0.3764450500       -0.1627882499
 C         -5.0412773707        1.2302044737        0.6348321263
 C         -5.7591110453        2.1027209244        1.4328884058
 C         -5.0967851901        2.9778635463        2.2797830578
 C         -3.7153128430        2.9660302858        2.3329200678
 C         -2.9898392692        2.0966672726        1.5357306750
 C         -3.6377170079        1.2277017619        0.6635514969
 N         -2.9408364045        0.3438830231       -0.1511781159
 C         -1.5226342976        0.3542740549       -0.1660144141
 C         -0.8436084490        1.4618863887       -0.6965711324
 C          0.5236201568        1.4644870568       -0.7044335972
 C          1.2562479346        0.3753770393       -0.1997712995
 C          0.5771284634       -0.7511201849        0.3301137950
 C         -0.8236191201       -0.7211926280        0.3367806974
 C          1.3384014944       -1.8630899130        0.8405604958
 C          0.7435078307       -3.0262381712        1.3544404095
 C          1.4985787192       -4.0672460855        1.8360975583
 C          2.8928447508       -3.9921407287        1.8265330217
 C          3.5069962440       -2.8732974777        1.3279972903
 C          2.7525062193       -1.7994628126        0.8281095171
 C          3.4365074032       -0.6572807491        0.3051046425
 N          4.7560348778       -0.5902770316        0.2977415493
 C          5.4136343546        0.4616952503       -0.1911293679
 C          6.8036311560        0.5422695995       -0.2035890243
 C          7.4465027177        1.6514485769       -0.7248388275
 C          6.7124229858        2.7058105527       -1.2478126730
 C          5.3297689620        2.6618566073       -1.2524524565
 C          4.6469874406        1.5628402785       -0.7345998158
 N          3.3181426989        1.4809530185       -0.7214075638
 C          2.6807184735        0.4309924079       -0.2241586580
 H         -5.7178306140       -2.9268357154       -3.1978256174
 H         -3.2442469581       -2.9653725109       -3.2780936739
 H         -1.9407525317       -1.4388926215       -1.8727697330
 H         -6.8626740615       -1.3076247065       -1.7002712086
 H         -6.8355843696        2.0781545604        1.3785401681
 H         -5.6631958836        3.6563711024        2.8974877207
 H         -3.1903546331        3.6328380499        2.9991127193
 H         -1.9128662218        2.0855231324        1.5904909896
 H         -1.4082990718        2.2927626162       -1.0918253952
 H          1.0786774583        2.2988750603       -1.1044044700
 H         -1.3871274398       -1.5459976659        0.7432757899
 H         -0.3309242642       -3.1181952045        1.3739397970
 H          1.0115280051       -4.9497348555        2.2242329973
 H          3.4800464781       -4.8137744113        2.2084311096
 H          4.5823877209       -2.7866943950        1.3030540271
 H          7.3635309068       -0.2849311390        0.2046387360
 H          8.5249862019        1.6921409339       -0.7225160657
 H          7.2191643388        3.5680251286       -1.6541418066
 H          4.7476052231        3.4769123922       -1.6539371712
  55
  -91.0536105400000       0.147526734340713      !
 C         -5.1435934159       -0.9367349060       -3.6195917412
 C         -3.7627602718       -0.9998221240       -3.6448451487
 C         -3.0219512316       -0.6120065197       -2.5410641551
 C         -3.6529055539       -0.1436716505       -1.3928585149
 C         -5.0561203969       -0.1091802833       -1.3677744805
 C         -5.7895134069       -0.4972635896       -2.4745930977
 O         -5.7572264917        0.2921628117       -0.2614725358
 C         -5.0402854552        0.6776085438        0.8403883808
 C         -5.7595809217        1.0849077539        1.9498059828
 C         -5.0991538648        1.5113458440        3.0914292857
 C         -3.7170651960        1.5403977872        3.1109030926
 C         -2.9904462814        1.1324497834        2.0049271115
 C         -3.6363385328        0.6792673668        0.8588243467
 N         -2.9405749073        0.2581768541       -0.2690682668
 C         -1.5230213582        0.2676575710       -0.2855494193
 C         -0.8440462742        1.1574514426       -1.1323387806
 C          0.5232126336        1.1620204284       -1.1368575071
 C          1.2569874594        0.3030203707       -0.2994741837
 C          0.5783053422       -0.5937389989        0.5643882241
 C         -0.8223274522       -0.5893236043        0.5351178651
 C          1.3398670974       -1.4634109890        1.4248092865
 C          0.7454847176       -2.3649812448        2.3219217674
 C          1.5011117316       -3.1776999708        3.1307421336
 C          2.8955179282       -3.1259681837        3.0794034780
 C          3.5091419997       -2.2558868589        2.2169235439
 C          2.7539805804       -1.4156890403        1.3826161411
 C          3.4374483693       -0.5177115381        0.5039499460
 N          4.7570550275       -0.4728792836        0.4581750994
 C          5.4145876817        0.3547763672       -0.3543382421
 C          6.8047582379        0.4098116205       -0.4098358869
 C          7.4477564615        1.2830654171       -1.2696661301
 C          6.7133926104        2.1232860549       -2.0933934350
 C          5.3304999281        2.0990236423       -2.0641229628
 C          4.6476759214        1.2335669870       -1.2116453303
 N          3.3187096062        1.1832219895       -1.1487656236
 C          2.6814091704        0.3504587419       -0.3388293517
 H         -5.7219001798       -1.2351461410       -4.4793840638
 H         -3.2502348137       -1.3563458113       -4.5247688059
 H         -1.9457600378       -0.6764370769       -2.5646417866
 H         -6.8651299278       -0.4503538225       -2.4174486987
 H         -6.8362135854        1.0636570466        1.8967010347
 H         -5.6664795147        1.8238654598        3.9534611013
 H         -3.1918136934        1.8840862188        3.9884694167
 H         -1.9130106467        1.1712656503        2.0255730010
 H         -1.4084693659        1.8272231952       -1.7634208887
 H          1.0773140424        1.8327009793       -1.7752229908
 H         -1.3849231851       -1.2634087653        1.1617326831
 H         -0.3290807910       -2.4273222036        2.3903743392
 H          1.0143691058       -3.8604400587        3.8116521761
 H          3.4832431100       -3.7696952907        3.7166571363
 H          4.5846025609       -2.1918697417        2.1539090735
 H          7.3645906752       -0.2485258943        0.2361099915
 H          8.5265604117        1.3070181410       -1.2964017577
 H          7.2200751591        2.8015839980       -2.7630319028
 H          4.7484745317        2.7471242393       -2.7008670712
  55
  -91.0535136400000       0.133149203330807      !
 C         -5.0501030703       -0.8188430041       -3.6952319548
 C         -3.6689598054       -0.8763692199       -3.6861114829
 C         -2.9589487682       -0.5235910510       -2.5508616032
 C         -3.6208593400       -0.0945618047       -1.4044837635
 C         -5.0242612467       -0.0696720078       -1.4143824234
 C         -5.7270881416       -0.4226993665       -2.5524798711
 O         -5.7560997102        0.2868423949       -0.3129033866
 C         -5.0703966644        0.6208811950        0.8248870495
 C         -5.8221425669        0.9638817068        1.9344781910
 C         -5.1960941280        1.3389377278        3.1126908370
 C         -3.8155967894        1.3839712273        3.1680930815
 C         -3.0566110390        1.0402985446        2.0620517338
 C         -3.6673686498        0.6352342679        0.8791619686
 N         -2.9391952613        0.2755829450       -0.2499909970
 C         -1.5227137909        0.3037501268       -0.2409804594
 C         -0.8436325930        1.2040093664       -1.0772703311
 C          0.5233803022        1.2062946655       -1.0864585795
 C          1.2579885484        0.3401145576       -0.2572810875
 C          0.5799866827       -0.5485990889        0.6151082175
 C         -0.8206453065       -0.5513621961        0.5808518693
 C          1.3430248731       -1.4083655114        1.4841858039
 C          0.7501890452       -2.2754222224        2.4156542608
 C          1.5069154168       -3.0788390418        3.2328290353
 C          2.9007633282       -3.0528614762        3.1545857546
 C          3.5130009896       -2.2148946022        2.2598527980
 C          2.7568826692       -1.3823113995        1.4187761800
 C          3.4389421754       -0.5125598853        0.5110005140
 N          4.7575317398       -0.4996018514        0.4304546691
 C          5.4129880455        0.3022183640       -0.4092756602
 C          6.8018225924        0.3195233051       -0.5060283684
 C          7.4421044477        1.1666689230       -1.3936023639
 C          6.7065041630        2.0184352293       -2.2042244153
 C          5.3250620815        2.0318561084       -2.1340842562
 C          4.6449513119        1.1931447901       -1.2531687480
 N          3.3175202029        1.1768313515       -1.1535163655
 C          2.6818330744        0.3645243373       -0.3217540485
 H         -5.6044341809       -1.0881858622       -4.5800932878
 H         -3.1315822173       -1.2002728357       -4.5637930375
 H         -1.8822793552       -0.5857087215       -2.5495228979
 H         -6.8041201155       -0.3825119721       -2.5213277272
 H         -6.8966025272        0.9351890098        1.8518257235
 H         -5.7888036800        1.6027161913        3.9740593053
 H         -3.3167514639        1.6905826142        4.0743177717
 H         -1.9807321397        1.0927051943        2.1122824746
 H         -1.4085190461        1.8784706456       -1.7029082889
 H          1.0766157407        1.8771269905       -1.7253563128
 H         -1.3808399723       -1.2354295825        1.1986486553
 H         -0.3238383732       -2.3154678680        2.5063696849
 H          1.0215199106       -3.7334279818        3.9417504035
 H          3.4893013224       -3.6884112394        3.7991073009
 H          4.5881498210       -2.1681674698        2.1789004678
 H          7.3629180542       -0.3476266143        0.1297477408
 H          8.5196856595        1.1600235822       -1.4534287505
 H          7.2109647642        2.6758384589       -2.8960032878
 H          4.7416393745        2.6880663226       -2.7611738741
  55
  -91.0534217200000       0.120807824911956      !
 C         -5.2294777621       -2.4378358453       -2.2999326200
 C         -3.8513645859       -2.4529855614       -2.4094616359
 C         -3.0814556684       -1.5336989878       -1.7170588683
 C         -3.6779788523       -0.5846324010       -0.8925595325
 C         -5.0796997112       -0.5571371253       -0.8148688535
 C         -5.8425526375       -1.4809266169       -1.5067719700
 O         -5.7538585774        0.3774663847       -0.0747618000
 C         -5.0107396976        1.2949483150        0.6193621758
 C         -5.7029312096        2.2316492013        1.3660573794
 C         -5.0147773302        3.1719756670        2.1166023883
 C         -3.6323905220        3.1562568541        2.1301438128
 C         -2.9332082643        2.2224340338        1.3840430499
 C         -3.6070395562        1.2918650038        0.5987706882
 N         -2.9376001481        0.3479627219       -0.1735843424
 C         -1.5218846602        0.3424575138       -0.2196359884
 C         -0.8400014823        1.4476996518       -0.7530889467
 C          0.5271596550        1.4529893202       -0.7537818981
 C          1.2595627433        0.3610153917       -0.2552270519
 C          0.5784384015       -0.7786080404        0.2426553051
 C         -0.8216742544       -0.7415049412        0.2649857469
 C          1.3379684113       -1.9100659990        0.7112802700
 C          0.7418516067       -3.1017856177        1.1529781631
 C          1.4957216307       -4.1635245056        1.5893609764
 C          2.8894981949       -4.0808401246        1.6058890107
 C          3.5048038573       -2.9345238969        1.1759492401
 C          2.7516894982       -1.8400105523        0.7207086969
 C          3.4365410139       -0.6697638639        0.2654132543
 N          4.7547650133       -0.5875423437        0.3010661827
 C          5.4130387608        0.4948598283       -0.1147520040
 C          6.8010892226        0.5957277580       -0.0709071851
 C          7.4447841086        1.7400666856       -0.5085417866
 C          6.7134346589        2.8095692764       -1.0035950858
 C          5.3330239173        2.7444166598       -1.0665710093
 C          4.6493749231        1.6097632763       -0.6337140667
 N          3.3225059540        1.5072411773       -0.6766722822
 C          2.6834764712        0.4302294184       -0.2434192922
 H         -5.8303794503       -3.1567705377       -2.8335508592
 H         -3.3631207342       -3.1813824240       -3.0381268255
 H         -2.0081307006       -1.5464318857       -1.8204385988
 H         -6.9154267843       -1.4288674764       -1.4140636011
 H         -6.7805892352        2.2037649302        1.3485831456
 H         -5.5607993997        3.9022418104        2.6922168083
 H         -3.0854116693        3.8711390054        2.7250059077
 H         -1.8555026468        2.2104753492        1.4138615420
 H         -1.4025116141        2.2791690805       -1.1501285968
 H          1.0820186853        2.2931819295       -1.1417284294
 H         -1.3829434488       -1.5657472947        0.6762490339
 H         -0.3321643183       -3.2014679571        1.1460450740
 H          1.0081603894       -5.0688681063        1.9199822506
 H          3.4756515796       -4.9189034215        1.9520342628
 H          4.5800101174       -2.8420066401        1.1704731931
 H          7.3584990664       -0.2431020495        0.3161938558
 H          8.5216620017        1.7968146066       -0.4615555394
 H          7.2204833771        3.7003637372       -1.3421789388
 H          4.7532962783        3.5710429064       -1.4470860965
  55
  -91.0532952100000       0.105670824156697      !
 C         -5.1367415593       -1.4994233677       -3.2963898760
 C         -3.7548436219       -1.5371940553       -3.3245230935
 C         -3.0167057847       -0.9465749293       -2.3125562090
 C         -3.6550490618       -0.3055578335       -1.2563150962
 C         -5.0586003518       -0.2751298475       -1.2332032241
 C         -5.7881862595       -0.8678078020       -2.2475943433
 O         -5.7581944757        0.3297403301       -0.2215317593
 C         -5.0394367096        0.9192186754        0.7858389991
 C         -5.7503574142        1.5365269290        1.7988565503
 C         -5.0798687628        2.1544312734        2.8437206066
 C         -3.6974209643        2.1537834673        2.8692326148
 C         -2.9778539816        1.5388262304        1.8583525162
 C         -3.6354382490        0.9115622604        0.8056398840
 N         -2.9458558252        0.2896618785       -0.2242590272
 C         -1.5233135674        0.2979972726       -0.2437427097
 C         -0.8490666325        1.2697848794       -0.9966018639
 C          0.5186563457        1.2763945461       -1.0002847503
 C          1.2520596739        0.3268592349       -0.2671450439
 C          0.5753743581       -0.6646954305        0.4883400280
 C         -0.8260565290       -0.6444464111        0.4774681209
 C          1.3386982681       -1.6406014377        1.2239620774
 C          0.7461021061       -2.6580353043        1.9887024757
 C          1.5033820412       -3.5757832758        2.6742094706
 C          2.8976682526       -3.5177313010        2.6269477029
 C          3.5095657472       -2.5370168013        1.8912556600
 C          2.7527130047       -1.5895722908        1.1829887695
 C          3.4345276067       -0.5827770620        0.4294937962
 N          4.7540122887       -0.5276605983        0.3942375489
 C          5.4096580003        0.4037158752       -0.2994344219
 C          6.7996490584        0.4726716449       -0.3404391172
 C          7.4408576244        1.4580133361       -1.0705447639
 C          6.7050538983        2.3975984353       -1.7771023529
 C          5.3225074677        2.3604329701       -1.7607886054
 C          4.6412941037        1.3833078742       -1.0372471737
 N          3.3121695403        1.3141439542       -0.9940541579
 C          2.6768954842        0.3817437535       -0.2989515622
 H         -5.7127880985       -1.9592251481       -4.0835423980
 H         -3.2404246988       -2.0290476259       -4.1353437053
 H         -1.9386257681       -0.9799218611       -2.3336747428
 H         -6.8643227027       -0.8248646193       -2.1978947320
 H         -6.8273560289        1.5239238987        1.7507016132
 H         -5.6414786516        2.6343508644        3.6293032080
 H         -3.1678405094        2.6343160257        3.6771599471
 H         -1.8992957745        1.5433728515        1.8773707570
 H         -1.4164816291        1.9973248165       -1.5569881324
 H          1.0729285631        2.0113925175       -1.5632222909
 H         -1.3905923121       -1.3711654467        1.0399607348
 H         -0.3283397197       -2.7321512026        2.0462860400
 H          1.0180458244       -4.3475784600        3.2534323659
 H          3.4865003334       -4.2428189164        3.1683213235
 H          4.5849472168       -2.4651991820        1.8345899871
 H          7.3605577052       -0.2637667320        0.2137009396
 H          8.5194474359        1.4919857966       -1.0876131678
 H          7.2105112942        3.1646992370       -2.3439989642
 H          4.7395429563        3.0853562009       -2.3070217635
  55
  -91.0532613000000       0.101946222381297      !
 C         -5.0715151486       -1.8708771224       -3.0242587996
 C         -3.6897141983       -1.8453241524       -3.0683378576
 C         -2.9721232683       -1.1093364850       -2.1404805314
 C         -3.6310630727       -0.3866292506       -1.1515717475
 C         -5.0345338548       -0.4127301408       -1.1177116983
 C         -5.7433917051       -1.1517697535       -2.0472235553
 O         -5.7545063637        0.2812519489       -0.1801849361
 C         -5.0566593027        1.0165497424        0.7425096319
 C         -5.7875124841        1.7110799276        1.6891126899
 C         -5.1377583579        2.4679009080        2.6526331107
 C         -3.7563470140        2.5243170544        2.6665297452
 C         -3.0168230181        1.8311532993        1.7229147578
 C         -3.6536496144        1.0717046135        0.7473244830
 N         -2.9432470807        0.3631806430       -0.2095880034
 C         -1.5205213649        0.3804355768       -0.2065922107
 C         -0.8364210636        1.4324907938       -0.8314102488
 C          0.5316937161        1.4279526201       -0.8316400871
 C          1.2558542861        0.3916465090       -0.2160003545
 C          0.5684739004       -0.6689114281        0.4280560575
 C         -0.8322933835       -0.6406838063        0.4084196733
 C          1.3198046843       -1.7176970739        1.0695781059
 C          0.7151437355       -2.7930437934        1.7396852338
 C          1.4616985650       -3.7736794565        2.3451037091
 C          2.8565563784       -3.7246423562        2.3069650121
 C          3.4799826208       -2.6899152683        1.6602804661
 C          2.7341027186       -1.6768451464        1.0363221109
 C          3.4269909920       -0.6153873826        0.3733285815
 N          4.7468924572       -0.5804613533        0.3315761115
 C          5.4144927850        0.3981201185       -0.2809254920
 C          6.8050582894        0.4405792985       -0.3352264511
 C          7.4594843169        1.4745282688       -0.9816364985
 C          6.7359651331        2.4902598939       -1.5888774002
 C          5.3529636771        2.4815682239       -1.5559932407
 C          4.6584711309        1.4569451617       -0.9153072268
 N          3.3286453848        1.4087065226       -0.8648088538
 C          2.6813603837        0.4264051314       -0.2542348692
 H         -5.6314363167       -2.4443136711       -3.7456944249
 H         -3.1592103238       -2.3989395949       -3.8274165469
 H         -1.8942264981       -1.0879895357       -2.1778902011
 H         -6.8200789106       -1.1503502146       -1.9901463764
 H         -6.8631370009        1.6449891062        1.6565658175
 H         -5.7148827753        3.0064251249        3.3873451422
 H         -3.2430807400        3.1083111745        3.4145831022
 H         -1.9389600902        1.8728134739        1.7370603179
 H         -1.3961393314        2.2251882481       -1.3041618678
 H          1.0930649181        2.2172350730       -1.3072599815
 H         -1.4041673065       -1.4265648964        0.8761171995
 H         -0.3600526244       -2.8608824099        1.7892799032
 H          0.9673724989       -4.5879146478        2.8543229318
 H          3.4369400906       -4.4990180596        2.7856814703
 H          4.5560611333       -2.6234363119        1.6131320639
 H          7.3555570863       -0.3561700874        0.1406446877
 H          8.5385069555        1.4858523303       -1.0121818794
 H          7.2518692454        3.2946304823       -2.0911312595
 H          4.7800576940        3.2665349236       -2.0248754253
  55
  -91.0531596200000       9.154660539718432E-002 !
 C         -4.9617645051       -2.4024416948       -2.4523086776
 C         -3.5797022708       -2.3882009564       -2.4327510675
 C         -2.8973259817       -1.4697590952       -1.6531418692
 C         -3.5859094436       -0.5514600800       -0.8657774230
 C         -4.9886973249       -0.5498660990       -0.9241666886
 C         -5.6645905545       -1.4722717771       -1.7034174629
 O         -5.7495511932        0.3599668462       -0.2394982278
 C         -5.0953153364        1.2780641092        0.5379615494
 C         -5.8749573687        2.1946275483        1.2205406259
 C         -5.2822246506        3.1316484953        2.0520434701
 C         -3.9090433664        3.1308115707        2.2124576625
 C         -3.1223548386        2.2185139375        1.5293259543
 C         -3.6969652765        1.2949593716        0.6613167870
 N         -2.9363294812        0.3759164824       -0.0540319424
 C         -1.5220011799        0.4159957241       -0.0103558498
 C         -0.8389929842        1.5564056165       -0.4622658127
 C          0.5282971224        1.5605402221       -0.4615157578
 C          1.2608602583        0.4345148058       -0.0453751395
 C          0.5795325030       -0.7185629671        0.4199490617
 C         -0.8203372180       -0.6815528167        0.4419988701
 C          1.3363576159       -1.8768010295        0.8231907888
 C          0.7376655059       -3.0644246806        1.2726344581
 C          1.4884585799       -4.1576034541        1.6293543098
 C          2.8821037381       -4.1121296619        1.5552676455
 C          3.4998031983       -2.9689115221        1.1206536868
 C          2.7493748219       -1.8418930455        0.7473133824
 C          3.4355802542       -0.6784868713        0.2773675055
 N          4.7534237400       -0.6480099959        0.1882615281
 C          5.4134924565        0.4173061767       -0.2658953778
 C          6.8002806902        0.4504756745       -0.3850365308
 C          7.4455562750        1.5755819820       -0.8677889475
 C          6.7169920693        2.6954226761       -1.2403938305
 C          5.3374760265        2.6994695074       -1.1369497786
 C          4.6520073652        1.5837870467       -0.6602241356
 N          3.3248676583        1.5394817119       -0.5633627864
 C          2.6841996481        0.4681152814       -0.1191203724
 H         -5.4950339022       -3.1217946258       -3.0529507831
 H         -3.0184631049       -3.0925284368       -3.0269642552
 H         -1.8193790393       -1.4612591770       -1.6617711075
 H         -6.7421939513       -1.4397501128       -1.7126717884
 H         -6.9443123979        2.1535061799        1.0891810192
 H         -5.8958637909        3.8462052749        2.5770553056
 H         -3.4384030704        3.8409608337        2.8744809286
 H         -2.0535447329        2.2173048919        1.6723885847
 H         -1.3993780426        2.4086636027       -0.8158356869
 H          1.0831070185        2.4200203349       -0.8046873039
 H         -1.3826366062       -1.5273983905        0.8048681881
 H         -0.3365106671       -3.1344889335        1.3404530043
 H          0.9983233882       -5.0587022849        1.9676755749
 H          3.4659083039       -4.9755206567        1.8371922722
 H          4.5746256803       -2.9034895539        1.0487511820
 H          7.3555261489       -0.4270572084       -0.0923635485
 H          8.5216819447        1.5778852193       -0.9519647073
 H          7.2256442569        3.5709366222       -1.6146038307
 H          4.7600551402        3.5647024650       -1.4235378850
  55
  -91.0530726800000       8.350017533617875E-002 !
 C         -5.2989732981       -0.7075667347       -3.6641562201
 C         -3.9251948463       -0.8457888606       -3.7346184202
 C         -3.1329908385       -0.5612054832       -2.6349335415
 C         -3.7024632219       -0.1200134605       -1.4442862063
 C         -5.1011949374       -0.0237944727       -1.3714244525
 C         -5.8864089198       -0.3062013763       -2.4748437994
 O         -5.7506062410        0.3333902268       -0.2198865238
 C         -4.9846299497        0.6203612196        0.8783954963
 C         -5.6556583050        0.9749030551        2.0355363095
 C         -4.9478308789        1.3142762241        3.1773148774
 C         -3.5659508786        1.3191960228        3.1453505577
 C         -2.8885184493        0.9624105646        1.9918748580
 C         -3.5816187865        0.5804916111        0.8467516773
 N         -2.9366139374        0.1932420153       -0.3260105828
 C         -1.5226061797        0.1689902503       -0.3842361545
 C         -0.8416008180        1.0171051369       -1.2720358482
 C          0.5257501236        1.0168448359       -1.2801663968
 C          1.2604075741        0.2098983739       -0.3930872140
 C          0.5810398294       -0.6507100510        0.5058006286
 C         -0.8186822300       -0.6613436894        0.4624441966
 C          1.3390209879       -1.4466073022        1.4378990737
 C          0.7414969038       -2.2987005865        2.3801562261
 C          1.4925954737       -3.0177268764        3.2771373515
 C          2.8854404299       -2.9196453182        3.2708575444
 C          3.5022383232       -2.1015039756        2.3611812488
 C          2.7515210345       -1.3557408324        1.4376524035
 C          3.4366346997       -0.4989990092        0.5201961147
 N          4.7548339829       -0.4095796448        0.5180464333
 C          5.4140504697        0.3965568024       -0.3140756388
 C          6.8016491920        0.5108392453       -0.3114349694
 C          7.4461247116        1.3658267179       -1.1884082317
 C          6.7158545262        2.1253968809       -2.0903009361
 C          5.3354937983        2.0387578326       -2.1222994167
 C          4.6509353435        1.1919939338       -1.2526981017
 N          3.3233979934        1.0910876495       -1.2397796001
 C          2.6838881481        0.2886249390       -0.4015834726
 H         -5.9170085141       -0.9208545393       -4.5216785155
 H         -3.4583343896       -1.1798491226       -4.6481687085
 H         -2.0637527731       -0.6864813463       -2.6963775834
 H         -6.9559645206       -0.2098796119       -2.3785150734
 H         -6.7335796680        0.9835579203        2.0175607752
 H         -5.4771235750        1.5837154412        4.0772305740
 H         -3.0010262270        1.6033197605        4.0195750851
 H         -1.8109024640        0.9872718521        1.9787154979
 H         -1.4032031181        1.6665333792       -1.9264039709
 H          1.0791630370        1.6566305977       -1.9500168337
 H         -1.3792933252       -1.3168165575        1.1100597753
 H         -0.3321380890       -2.3956095127        2.4148579664
 H          1.0032491558       -3.6606003243        3.9940192206
 H          3.4692608150       -3.4851338944        3.9814887552
 H          4.5764991659       -2.0032046957        2.3317104512
 H          7.3581768755       -0.0853922648        0.3949839061
 H          8.5228738103        1.4381866867       -1.1674890674
 H          7.2236189000        2.7904347488       -2.7723857100
 H          4.7567695435        2.6246654859       -2.8195885371
  55
  -91.0528786400000       6.800060516698880E-002 !
 C         -5.2059541774       -1.6936847095       -3.1432335583
 C         -3.8362243073       -1.5910132255       -3.3020061294
 C         -3.0737751431       -0.8959750587       -2.3781709033
 C         -3.6757605581       -0.2882679426       -1.2818343514
 C         -5.0676368271       -0.3935411379       -1.1301653796
 C         -5.8210073521       -1.0938386683       -2.0546711090
 O         -5.7318525140        0.1746691727       -0.0742289915
 C         -4.9866105110        0.8484584245        0.8582312492
 C         -5.6588193339        1.4064391816        1.9304844233
 C         -4.9597046832        2.1027576774        2.9048691072
 C         -3.5878961577        2.2404304873        2.8005837660
 C         -2.9069364297        1.6823594469        1.7318030426
 C         -3.5928326943        0.9761416520        0.7494548474
 N         -2.9401161224        0.4100232153       -0.3359489613
 C         -1.5173577192        0.3883254851       -0.3713382000
 C         -0.8143118920        1.3334242561       -1.1301873702
 C          0.5543379603        1.3127287634       -1.1127223310
 C          1.2595225890        0.3604707272       -0.3555730238
 C          0.5515231963       -0.6176059349        0.3888257727
 C         -0.8475523317       -0.5646140512        0.3624974839
 C          1.2798030747       -1.6088105784        1.1385545338
 C          0.6519282557       -2.6338128680        1.8637255137
 C          1.3769387062       -3.5623790410        2.5691019067
 C          2.7720727797       -3.5062973575        2.5837956509
 C          3.4176451838       -2.5217872147        1.8827715549
 C          2.6940378871       -1.5664424414        1.1506357878
 C          3.4082251399       -0.5621713124        0.4245151374
 N          4.7280794473       -0.5122049540        0.4450558108
 C          5.4167693362        0.4130200932       -0.2238029546
 C          6.8074698309        0.4764268751       -0.2033058184
 C          7.4842448330        1.4566462245       -0.9077398418
 C          6.7834775619        2.3962651369       -1.6491875565
 C          5.4011228751        2.3635229879       -1.6949051499
 C          4.6846481587        1.3912983660       -0.9994877289
 N          3.3543351003        1.3265730876       -1.0140339284
 C          2.6856001201        0.4020880984       -0.3401069369
 H         -5.8004912627       -2.2394503649       -3.8584665564
 H         -3.3499585811       -2.0557626000       -4.1455988619
 H         -2.0040882448       -0.8232188672       -2.4982188825
 H         -6.8863910535       -1.1604384617       -1.9031199818
 H         -6.7286179014        1.2841585217        1.9849388489
 H         -5.4912481869        2.5343832921        3.7379458658
 H         -3.0363092876        2.7838375619        3.5519299265
 H         -1.8366151956        1.7906960455        1.6519303907
 H         -1.3573616582        2.0663393336       -1.7071437981
 H          1.1303362642        2.0321113002       -1.6741601380
 H         -1.4344937034       -1.2704859279        0.9289173790
 H         -0.4239958339       -2.7080928317        1.8705441620
 H          0.8653335499       -4.3414547301        3.1149011953
 H          3.3352363780       -4.2384194731        3.1428797592
 H          4.4946328033       -2.4543540615        1.8703024509
 H          7.3403215781       -0.2597306321        0.3783831173
 H          8.5627679218        1.4867600967       -0.8763457773
 H          7.3162779525        3.1599445701       -2.1952916695
 H          4.8460353573        3.0892873617       -2.2687740617
