  93
       -135.02768355
 C          1.0644235453        0.1461519838        4.9723170564
 C          0.3558968836        0.3879319611        3.6745965228
 C         -0.8932850632        0.9909878983        3.6305296303
 C         -1.5283336037        1.2259315126        2.4281891348
 C         -0.9305770951        0.8642447373        1.2195285168
 C          0.3183063673        0.2387484205        1.2550839110
 C          0.9388460639        0.0140760404        2.4721404501
 C          0.9792238697       -0.2867023689       -0.0085681538
 C          2.4256444210        0.1329569052       -0.0128498221
 C          2.7213509967        1.4900985950       -0.0867508883
 C          4.0260848007        1.9359668710       -0.0969683925
 C          5.0899140452        1.0336347301       -0.0272200592
 C          6.4831129454        1.5027011580       -0.0452136731
 C          7.4415317102        0.9095917801        0.7728561714
 C          8.7515384105        1.3502872468        0.7543384432
 C          9.1267736946        2.3863559367       -0.0842759059
 C          8.1827054240        2.9806633473       -0.9042848329
 C          6.8709035378        2.5449632226       -0.8838543360
 C          4.7955955613       -0.3177969365        0.0585355222
 C          3.4790796884       -0.7773292136        0.0658704510
 C          3.2538911397       -2.2347316401        0.1616433921
 O          4.1783945321       -3.0206773997        0.2834360411
 C          1.8513323262       -2.6829983435        0.1001725681
 C          1.5878747403       -4.0555552393        0.1365937742
 C          0.2999099832       -4.5339628774        0.0819541139
 C         -0.7723958531       -3.6435249982       -0.0100949616
 C         -2.1609736679       -4.1196145946       -0.0624249223
 C         -3.1624629321       -3.4494725190        0.6380965511
 C         -4.4722389173       -3.8874754411        0.5828806549
 C         -4.8040065373       -4.9982772521       -0.1750746373
 C         -3.8164616032       -5.6718535246       -0.8742725403
 C         -2.5048464452       -5.2386840343       -0.8170328331
 C         -0.5069105283       -2.2809661064       -0.0489758607
 C          0.7878645550       -1.7864514255        0.0056541386
 C          0.3057698199        0.2524988430       -1.2563084761
 C          0.9189521528        0.0529098711       -2.4819662346
 C          0.3405228064        0.4762562693       -3.6695561623
 C          1.0160090679        0.2235250636       -4.9828740942
 C         -0.8911206478        1.1138715825       -3.6021722637
 C         -1.5193433768        1.3223315470       -2.3919027848
 C         -0.9342629007        0.8921015142       -1.1994344767
 N         -1.5688309545        1.1088493378        0.0136040115
 C         -2.8939477751        1.6250669505        0.0166681479
 C         -3.1304468436        2.9811168719        0.1997322809
 C         -4.4248273912        3.4609531396        0.2062521201
 C         -5.5179916791        2.6143512746        0.0309833261
 C         -6.9224664018        3.1961353344        0.0487831408
 C         -7.0534382292        4.2144929717       -1.0925693313
 C         -7.1600304042        3.8909708465        1.3970530995
 C         -8.0056503519        2.1299459630       -0.1348153795
 C         -5.2621350494        1.2613703734       -0.1568619583
 C         -3.9686959229        0.7686115230       -0.1641028324
 H          1.8256155179        0.9105885948        5.1326467084
 H          0.3681658671        0.1790835682        5.8068585648
 H          1.5611497993       -0.8219395176        4.9646795335
 H         -1.3825340697        1.2805299539        4.5493332089
 H         -2.5029076680        1.6897816551        2.4228656782
 H          1.9013481561       -0.4783370012        2.4821008585
 H          1.9088589758        2.2009600337       -0.1375106727
 H          4.2284199056        2.9961645114       -0.1402951379
 H          7.1517171753        0.1104676175        1.4389845747
 H          9.4836643042        0.8843193385        1.3974681322
 H         10.1510100903        2.7284482912       -0.0999351050
 H          8.4708252421        3.7857044906       -1.5647644217
 H          6.1433342823        3.0004752099       -1.5395753809
 H          5.5834336821       -1.0552603690        0.1014291901
 H          2.4301726371       -4.7272009938        0.2137039479
 H          0.1121991334       -5.5962154175        0.1324866728
 H         -2.9051189523       -2.5956902582        1.2489540780
 H         -5.2375972466       -3.3621528841        1.1357426322
 H         -5.8280263127       -5.3386691974       -0.2193278285
 H         -4.0703470069       -6.5376579299       -1.4683695162
 H         -1.7413766354       -5.7569930049       -1.3786796464
 H         -1.3306434964       -1.5898437491       -0.1415963633
 H          1.8745041154       -0.4526484555       -2.5074021773
 H          0.7599197645       -0.7708786380       -5.3508579714
 H          0.7001962290        0.9505256623       -5.7275624349
 H          2.0974407487        0.2725545129       -4.8763931142
 H         -1.3680388648        1.4559418419       -4.5093316134
 H         -2.4741913649        1.8252799234       -2.3646229784
 H         -2.2956469626        3.6525470045        0.3382811155
 H         -4.5778076502        4.5196696362        0.3502980942
 H         -6.3464008872        5.0315244440       -0.9792008641
 H         -8.0574632650        4.6328330710       -1.1068554382
 H         -6.8670723046        3.7323795908       -2.0500136341
 H         -7.0404745504        3.1806251359        2.2124976333
 H         -8.1694499726        4.2942390315        1.4363551865
 H         -6.4623028158        4.7088779132        1.5523789114
 H         -7.9032530628        1.6272079730       -1.0936261562
 H         -7.9669877296        1.3912200721        0.6624072347
 H         -8.9854974990        2.6019177100       -0.1073143759
 H         -6.0702357946        0.5633250112       -0.3001663066
 H         -3.7924534388       -0.2870180278       -0.3147235889
