  75
       -110.03101231
 C         -5.6713383458       -2.5433714166       -0.3710965373
 C         -4.3927755704       -2.6841267718        0.4444971790
 C         -3.6360491190       -3.9590336559        0.0815931635
 C         -2.4201432837       -4.2037694782        0.9853145655
 C         -1.3891216976       -3.1258507848        0.8273900280
 C         -0.4978063612       -3.1556974209       -0.2386027014
 C          0.4327686466       -2.1520726785       -0.4178483805
 C          0.4871378766       -1.0929031137        0.4812933248
 N          1.4123011335       -0.0502043244        0.3006847106
 C          1.1330578100        1.2932032961        0.3144337540
 C         -0.1985030982        1.8391499045        0.5499655261
 C         -0.3471993136        2.7783162007        1.5676494289
 C         -1.5913728313        3.2585026059        1.9154222521
 C         -2.7382338101        2.8105412977        1.2560294501
 C         -4.0426958814        3.2525873586        1.6216185713
 C         -5.1410161079        2.8285753785        0.9548422837
 C         -5.0336636706        1.9322657284       -0.1487828703
 C         -6.1503400676        1.5047028469       -0.8690480194
 C         -6.0109008594        0.6537151414       -1.9498500582
 C         -4.7608403484        0.2048414159       -2.3341260961
 C         -3.6176568156        0.5978558464       -1.6370605834
 C         -2.3105236733        0.1841537520       -2.0240077523
 C         -1.2137448763        0.5848900163       -1.3409020404
 C         -1.3176223235        1.4266489522       -0.1945354862
 C         -2.6001485229        1.8994951732        0.1793912475
 C         -3.7488694949        1.4728429211       -0.5310506803
 N          2.2147636247        2.0027073243        0.1308606394
 C          3.2470121286        1.1242403363       -0.0193315639
 C          4.6053632638        1.6099017197       -0.2087908650
 C          5.7172186714        0.8768763656        0.2013744867
 C          6.9906061754        1.3774165426        0.0065814348
 C          7.1739022537        2.6140741367       -0.5900492670
 C          6.0723615459        3.3575720397       -0.9816637688
 C          4.7974182559        2.8621814190       -0.7908699246
 C          2.7664309814       -0.1715275497        0.0774528747
 C          3.4405439931       -1.4599194319       -0.0045847464
 C          3.2173539288       -2.4452575502        0.9557138043
 C          3.8619598834       -3.6646673547        0.8661208725
 C          4.7349466077       -3.9176443692       -0.1785366833
 C          4.9642138885       -2.9420268491       -1.1356668368
 C          4.3217200735       -1.7219657961       -1.0531152753
 C         -0.3920165486       -1.0552690341        1.5564300066
 C         -1.3215021528       -2.0636454274        1.7197057318
 H         -6.3395178524       -3.3814685262       -0.1828307168
 H         -5.4429828139       -2.5184572906       -1.4339549784
 H         -6.1889640877       -1.6226914895       -0.1132188526
 H         -3.7529867662       -1.8159819238        0.2703001978
 H         -4.6452396977       -2.7043657007        1.5072704509
 H         -4.3121303662       -4.8130852970        0.1682057331
 H         -3.3058374835       -3.8973027819       -0.9575496115
 H         -1.9797887354       -5.1693101500        0.7259376660
 H         -2.7524443017       -4.2482360968        2.0242631420
 H         -0.5331738501       -3.9768499231       -0.9397358388
 H          1.1162077969       -2.1834252765       -1.2534803211
 H          0.5361631896        3.1102195794        2.0923378460
 H         -1.6894946056        3.9772962826        2.7162426541
 H         -4.1310011717        3.9416638175        2.4498022157
 H         -6.1264041342        3.1701569741        1.2390600488
 H         -7.1306988084        1.8523543950       -0.5754944556
 H         -6.8860570359        0.3375530934       -2.4990649500
 H         -4.6581507371       -0.4529022416       -3.1854751693
 H         -2.2132520663       -0.4487526976       -2.8947961858
 H         -0.2312674455        0.2977794557       -1.6834220259
 H          5.5832604900       -0.0791174860        0.6855268781
 H          7.8463110333        0.8006046844        0.3275257513
 H          8.1716894421        2.9994144854       -0.7422170093
 H          6.2102928686        4.3272897826       -1.4381345741
 H          3.9292548505        3.4317736636       -1.0845174329
 H          2.5477006068       -2.2490860468        1.7809811912
 H          3.6837545939       -4.4195502966        1.6180595912
 H          5.2376962681       -4.8710724682       -0.2454907870
 H          5.6453090030       -3.1345108532       -1.9516530919
 H          4.4970650137       -0.9596019369       -1.7981836334
 H         -0.3426962112       -0.2380816245        2.2607162073
 H         -2.0012077898       -2.0257439430        2.5581729838
