  94
       -150.40763493
 N          1.9219243679       10.0400917704       -0.0078267348
 C          1.3655559414        9.0330926400       -0.0124098360
 C          0.6764105751        7.8100269647       -0.0177916139
 N          1.3439104836        6.6596756702       -0.0070957442
 C          0.6818111936        5.4976519046       -0.0088847323
 C          1.3896228837        4.2636927558        0.0014406922
 C          2.7967390773        4.2758921315        0.0204683524
 C          3.5106789282        3.1114790434        0.0301707696
 C          2.8450240334        1.8717139386        0.0083362969
 C          3.6073896005        0.6219336891        0.0030512414
 C          4.7671675738        0.4860648861        0.7689654151
 C          5.4892278815       -0.6864818091        0.7669651717
 C          5.0828285269       -1.7677697396       -0.0192520827
 N          5.8201344638       -2.9511290645       -0.0340495593
 C          7.2152096969       -2.9090130141        0.0873280734
 C          7.8861830687       -3.8758306337        0.8364431222
 C          9.2618687603       -3.8323887678        0.9518501155
 C          9.9864130394       -2.8281928767        0.3298300167
 C          9.3240036831       -1.8651312165       -0.4145862951
 C          7.9490595293       -1.9021119111       -0.5403322192
 C          5.1749543733       -4.1849503171       -0.1715993181
 C          3.9401572672       -4.4110317992        0.4379926916
 C          3.3082774650       -5.6307380283        0.2948418288
 C          3.8956360715       -6.6425997376       -0.4478070813
 C          5.1242720680       -6.4249114709       -1.0506607823
 C          5.7617244872       -5.2068857877       -0.9191614528
 C          3.9261210204       -1.6373944410       -0.7921095407
 C          3.2016258183       -0.4663207587       -0.7723790925
 C          1.4610960761        1.8542507239       -0.0098286079
 C          0.6973914924        3.0258696612       -0.0060229904
 C         -0.7456519436        3.0236564342       -0.0042819191
 C         -1.5045525367        1.8494893679        0.0070911957
 C         -2.8890190355        1.8601027188        0.0044983238
 C         -3.6412780037        0.6046350130        0.0183420204
 C         -3.1990608344       -0.4906600333        0.7640614423
 C         -3.9039170067       -1.6734952544        0.7810423990
 C         -5.0805024847       -1.8066264039        0.0400539496
 N         -5.7952285835       -3.0051868049        0.0500035670
 C         -7.1943371466       -2.9838998043        0.0094306130
 C         -7.9042577750       -1.9994566068        0.6979265641
 C         -9.2844058220       -1.9799563304        0.6531414160
 C         -9.9763646981       -2.9388967807       -0.0694123681
 C         -9.2757662376       -3.9203995314       -0.7521875403
 C         -7.8952507616       -3.9457219680       -0.7187449704
 C         -5.1155476348       -4.2265709373        0.1007186267
 C         -5.6363777336       -5.2958519288        0.8308239932
 C         -4.9630797347       -6.5008755795        0.8733818884
 C         -3.7629949443       -6.6587835541        0.1985666005
 C         -3.2398870147       -5.5991351890       -0.5252174860
 C         -3.9082123312       -4.3918206604       -0.5796904581
 C         -5.5289935741       -0.7164794609       -0.7095037326
 C         -4.8229258472        0.4659213284       -0.7132658412
 C         -3.5596497728        3.0975110668       -0.0119954602
 C         -2.8502696028        4.2647487982       -0.0175192231
 C         -1.4427755348        4.2589706190       -0.0133758221
 C         -0.7395926640        5.4951256030       -0.0190249437
 N         -1.4053338047        6.6557687683       -0.0340300940
 C         -0.7411059090        7.8075305978       -0.0364034269
 C         -1.4334144338        9.0289736087       -0.0566616217
 N         -1.9887464949       10.0363845777       -0.0732328481
 H          3.2912211024        5.2352969330        0.0230629355
 H          4.5899419151        3.1369839519        0.0244927745
 H          5.0864059631        1.3020345498        1.3999287735
 H          6.3704277530       -0.7807729499        1.3845371697
 H          7.3199281716       -4.6515381948        1.3313174886
 H          9.7701866955       -4.5830346462        1.5382253709
 H         11.0608905044       -2.7965059246        0.4240513784
 H          9.8820744634       -1.0837567674       -0.9082889894
 H          7.4336132574       -1.1589092812       -1.1311885218
 H          3.4890886665       -3.6278266603        1.0299441544
 H          2.3548018559       -5.7945067612        0.7746749234
 H          3.3999594817       -7.5950954923       -0.5549880824
 H          5.5869311285       -7.2063654329       -1.6345879166
 H          6.7136152272       -5.0337112567       -1.3997979129
 H          3.6122984804       -2.4579867784       -1.4207784773
 H          2.3256341608       -0.3768451174       -1.3977741302
 H          0.9679567636        0.8952630478       -0.0013025639
 H         -1.0065079252        0.8932548760       -0.0063432876
 H         -2.3080033349       -0.3993548203        1.3673226173
 H         -3.5585977722       -2.5023709022        1.3817771438
 H         -7.3653478107       -1.2601447583        1.2724959234
 H         -9.8228436591       -1.2158176347        1.1934283426
 H        -11.0548092093       -2.9214075335       -0.0999114181
 H         -9.8073396358       -4.6673573578       -1.3224410950
 H         -7.3490786048       -4.7029730460       -1.2623271752
 H         -6.5648412766       -5.1696215818        1.3684712175
 H         -5.3746975927       -7.3195291025        1.4444487555
 H         -3.2396373286       -7.6017304279        0.2357311123
 H         -2.3092122383       -5.7156106987       -1.0604124329
 H         -3.5079961703       -3.5713143066       -1.1574375419
 H         -6.4290048583       -0.8125015686       -1.2991223963
 H         -5.1731878024        1.2877041651       -1.3195954054
 H         -4.6387865995        3.1200179086        0.0081371778
 H         -3.3488298499        5.2220772670       -0.0204019985
