74
 energy: -115.233677387024 gnorm: 0.000042884222 xtb: 6.7.1 (edcfbbe)
N           10.71446631763121       -0.00122895113460       -1.38533687021659
C            9.60096361948779       -0.00089785197345       -1.10490811911815
C            8.23209012355577       -0.00058048197831       -0.76013456691783
C            7.25979472147091       -0.00053888371094       -1.76291168587932
C            5.92324385503133       -0.00024485343321       -1.41886198582295
C            5.53443034555841        0.00001108036129       -0.08083382748551
C            4.09650739209304        0.00024172299200        0.27693768496391
C            3.42193338311969       -1.21625718757342        0.44071349357168
C            4.07949082830849       -2.46499622437279        0.28065086298595
C            3.40945727618429       -3.63872929896526        0.44055308465472
C            2.03786851367549       -3.63768134017620        0.76893445693094
C            1.37204702709170       -2.46257526852279        0.93539376925097
C            2.03350178671243       -1.21527119444468        0.78190777104158
C            1.35992136912596        0.00062747674096        0.95423802212371
C           -0.07227689858485        0.00074749365917        1.33511184193100
C           -0.42912903995030        0.00072358982396        2.68171206738280
C           -1.75732046339174        0.00045260406836        3.07315138133550
C           -2.73940465698760        0.00018025609302        2.09586584457336
C           -2.38089567116250        0.00036354998729        0.73950480356480
C           -1.06027482662630        0.00065246774017        0.35106637765662
C           -3.61087386515752       -0.00005654969204       -0.13597995675876
C           -3.67192347828177       -1.17218861700935       -1.08682918375152
C           -3.65030145521968       -2.51760151683820       -0.78988876160119
C           -3.72301460594957       -3.42793102865498       -1.83632181948886
C           -3.81469975050577       -2.99342026872303       -3.15038142374574
C           -3.83602856212596       -1.64091786949027       -3.45285722421362
C           -3.76350292505867       -0.72710955652746       -2.41386128788880
C           -3.76433093571406        0.72790841792478       -2.41351925454473
C           -3.83793759986459        1.64211829239425       -3.45208786160808
C           -3.81816055313363        2.99450367791638       -3.14898285040432
C           -3.72694698478174        3.42850443065154       -1.83472314630632
C           -3.65317843803764        2.51777020740104       -0.78871431407007
C           -3.67321484360043        1.17247152629617       -1.08628157452894
C           -4.71963034367545       -0.00081424388820        0.89027027729327
C           -6.08117215927033       -0.00173016136515        0.67892273510772
C           -6.92236365489556       -0.00232148760561        1.78413116129156
C           -6.40487899858010       -0.00199064396553        3.07108560940686
C           -5.03590971279521       -0.00110091705501        3.28769418562387
C           -4.19079191334201       -0.00053367370730        2.18974661955794
C            2.03386613152592        1.21632892650045        0.78200985005073
C            1.37277090793831        2.46381140079520        0.93558608799779
C            2.03893324091403        3.63873319841211        0.76919175421224
C            3.41051528113877        3.63939948718060        0.44077201812140
C            4.08021005156977        2.46548388714073        0.28078731576144
C            3.42229776044862        1.21692643828261        0.44080451131234
C            6.51007890091367       -0.00001427286362        0.91362087150494
C            7.85032127576760       -0.00030725884534        0.58337828862053
H            7.56156110106576       -0.00074171695536       -2.80021041487610
H            5.16759099698699       -0.00023052193227       -2.19049840600995
H            5.12983485230834       -2.46632860452887        0.02727154481611
H            3.92238059288516       -4.58139595751838        0.31597822047259
H            1.52233410842400       -4.57964217085869        0.88714132189787
H            0.32133258832898       -2.45781503145796        1.18635592597127
H            0.35188682963389        0.00083983611994        3.42879935715534
H           -2.01840722543227        0.00036582159576        4.12104044868690
H           -0.78659947538805        0.00069665432945       -0.69464249732805
H           -3.58060318466874       -2.85753795592178        0.23349242946696
H           -3.70842014485296       -4.48708751158617       -1.62365885890554
H           -3.87103949690055       -3.71980656730017       -3.94848034798091
H           -3.90806313372123       -1.30790612804929       -4.47777576329507
H           -3.90963054519180        1.30950142402919       -4.47715861614557
H           -3.87537128050144        3.72120055597515       -3.94673729819904
H           -3.71358807749057        4.48757725620466       -1.62156178682273
H           -3.58387153420141        2.85732381136561        0.23481826376695
H           -6.48537627462383       -0.00199978039080       -0.32333864033324
H           -7.99288290547652       -0.00304983427120        1.63892079931135
H           -7.07931053462820       -0.00246121489696        3.91537073138776
H           -4.63815831438993       -0.00089405342133        4.29184488157723
H            0.32205411197561        2.45932389885253        1.18655185978523
H            1.52368332923875        4.58083856673643        0.88748380434721
H            3.92371133809244        4.58192646960885        0.31625909167188
H            5.13054826053986        2.46652281202410        0.02737872519302
H            6.21026708949820        0.00018643187278        1.95124078847958
H            8.60758915591404       -0.00033001946546        1.35379040243439
