112
 energy: -179.401520268696 gnorm: 0.000033828363 xtb: 6.7.1 (edcfbbe)
C            6.21580603397577        4.52603908522899       -2.43586649689386
C            5.07202741631823        4.72945771523342       -3.19023548024425
C            3.99282083545487        3.87481525345521       -3.06236117436761
C            4.04247895172482        2.79493348560364       -2.18333594842616
C            2.88421683158842        1.90703941695784       -2.00360536714378
C            1.60126336795889        2.46036141052886       -1.90872684639501
C            0.49018547784195        1.68411962788328       -1.65280289984830
C            0.67682861805778        0.31919890264428       -1.49344612709809
C            1.94715577852090       -0.27176260786958       -1.66566191867439
C            3.05192841054760        0.52821870516859       -1.90564752133678
C            1.75062876182334       -1.69031936703193       -1.51047047421689
C            2.60837859357367       -2.77471533862830       -1.52700481978204
C            2.10110630401391       -4.05128094588055       -1.29769899132998
C            3.00607401443588       -5.20824047264361       -1.26941305520722
C            4.08318167262262       -5.29482075673144       -2.15107919795227
C            4.94632304147276       -6.37343711025950       -2.10825215795086
C            4.75451794306170       -7.38448272757612       -1.18074925524862
C            3.68746653100102       -7.31150355892416       -0.30047154518274
C            2.82012690952212       -6.23646357869611       -0.34614721870208
C            0.72623019742928       -4.21894144512713       -1.07710211465125
C           -0.14743096347295       -3.15147869532906       -1.04972889444986
C            0.37253724579902       -1.88043189775505       -1.24922181947126
N           -0.26209633470172       -0.65595898876261       -1.21792797555438
C           -1.49637608384446       -0.36470559607214       -0.60217353285833
C           -2.69616901673068       -0.76478905780561       -1.17090624010344
C           -3.91419596867388       -0.40250703180005       -0.59621498603088
N           -5.07979997357066       -0.78519051480740       -1.12472588689428
C           -6.23331076691082       -0.39965028344127       -0.58460074838160
C           -7.47565013882642       -0.81357307593599       -1.14989940121994
C           -7.51837697708832       -1.64288310489146       -2.28381774691649
C           -8.73360703793085       -2.02120994752715       -2.79624751453507
C           -9.89497224303647       -1.56143445848432       -2.15982720320076
N           -9.88195480331525       -0.78804203387105       -1.10443449785303
C           -8.71187871930329       -0.40387434828169       -0.58834296069400
C           -8.71051391323573        0.45139647999662        0.57132743441324
N           -9.87934878827553        0.84131595639754        1.08591786233649
C           -9.88991153939402        1.61473733688541        2.14131659807847
C           -8.72711448586996        2.06881279134290        2.77921305217555
C           -7.51309903626880        1.68456776400549        2.26830775054206
C           -7.47300315839462        0.85502915688969        1.13445998047357
C           -6.23199471145936        0.43476483241430        0.57092646082225
N           -5.07729960980783        0.81402020261513        1.11296811490112
C           -3.91292118568647        0.42472062748074        0.58657767024672
C           -2.69387976057391        0.78002579804371        1.16347603183616
C           -1.49537542427388        0.37304832900019        0.59694327022814
N           -0.26061298769861        0.65721844658686        1.21501269093009
C            0.67219732125643       -0.32332049591298        1.49217649906128
C            0.47737884590295       -1.68712453671208        1.65130850269148
C            1.58349382859212       -2.46975746073977        1.90924741845687
C            2.86946845125704       -1.92386431156367        2.00627112737076
C            4.02228038863197       -2.81836087735030        2.18828829467399
C            5.18793093926272       -2.61988185778564        1.45112010273418
C            6.25683085308514       -3.48766509241419        1.57364197011077
C            6.18543774663958       -4.56149000435337        2.44557358987597
C            5.03893316954861       -4.75848367403041        3.19751123003471
C            3.96475920456836       -3.89788424337749        3.06728067548463
C            3.04531786570007       -0.54603908155727        1.90849720547522
C            1.94560086670756        0.26031008435730        1.66661077502793
C            1.75748520296133        1.67998405306344        1.51117043182915
C            2.62141992320916        2.75942659811908        1.52933192100019
C            2.12186960051491        4.03892075901256        1.29938291485625
C            3.03350888361030        5.19066908863871        1.27276983286633
C            4.10981137137750        5.27080689716369        2.15603381457826
C            4.97925603739125        6.34440362489878        2.11470485113625
C            4.79463928539173        7.35678705703425        1.18720268902983
C            3.72843448970350        7.29023623896541        0.30539607557003
C            2.85484702563669        6.22019784259706        0.34951802523822
C            0.74833548497334        4.21450154469207        1.07657619654886
C           -0.13140847172318        3.15208600019157        1.04749465336686
C            0.38095434829215        1.87803779446977        1.24757457126581
C            5.20548165672704        2.58983202182495       -1.44380740442303
C            6.27943362082339        3.45168462992392       -1.56398280828359
H            7.05417809332273        5.20077480068950       -2.52854059529647
H            5.02031546130325        5.55979433234759       -3.87989068355849
H            3.10760293835453        4.03371547215890       -3.66127350886659
H            1.48445224871549        3.52857008634704       -2.00547387716659
H           -0.49336719056362        2.12338375676870       -1.57675795767587
H            4.02949912126283        0.08855976619796       -2.03094886393443
H            3.66544318073471       -2.62815519410458       -1.68340844825951
H            4.22977845591180       -4.52149145734656       -2.89094677481615
H            5.77192032424061       -6.42774496061228       -2.80345174047242
H            5.43165999783738       -8.22537489809000       -1.14542621748991
H            3.53297350888751       -8.09506990425359        0.42747049029722
H            2.00332727596579       -6.17963255369698        0.35818360668838
H            0.33759411691379       -5.21656396093263       -0.93737341420891
H           -1.20193284173773       -3.29936117306715       -0.87007742047061
H           -2.70191699418056       -1.33932409517431       -2.08377695720547
H           -6.58263434693239       -1.96069683560033       -2.72067718070292
H           -8.80382812256964       -2.65671779962321       -3.66487885243135
H          -10.87546357123275       -1.83651609642126       -2.52625643829753
H          -10.86949767062246        1.89469459451397        2.50647602856633
H           -8.79535034275446        2.70463644633808        3.64777306487589
H           -6.57637550454399        1.99785492512002        2.70633159823939
H           -2.69795617503638        1.35450763496100        2.07638824932023
H           -0.50857711260322       -2.12066979282296        1.57360845220442
H            1.46030297771785       -3.53725329851438        2.00592780406192
H            5.24164921977587       -1.79266064752249        0.75889206911455
H            7.14890606794438       -3.32895222538334        0.98471477493145
H            7.01981819370632       -5.24089190425058        2.54013298866544
H            4.98117536927957       -5.58842593534368        3.88716660715602
H            3.07741967285413       -4.05181082193313        3.66434701762649
H            4.02520195650007       -0.11203795083330        2.03543666782567
H            3.67735475146894        2.60675242633438        1.68749654135460
H            4.25085907400524        4.49646036074146        2.89591502207701
H            5.80419572415058        6.39375715187203        2.81105242566279
H            5.47678768947140        8.19366318652667        1.15303127857988
H            3.57950360578662        8.07490314483076       -0.42252102150513
H            2.03876098400779        6.16827500992575       -0.35602036395362
H            0.36567393779981        5.21438304447733        0.93652176025479
H           -1.18477159379285        3.30605937913576        0.86619164998848
H            5.25316302769270        1.76224068224273       -0.75158116098633
H            7.16937936412293        3.28794070359480       -0.97321460519754
