112
 energy: -179.401043403085 gnorm: 0.000059265035 xtb: 6.7.1 (edcfbbe)
C            5.91493594118322        5.01784711749026       -2.30285200271683
C            4.77153379961434        5.17370633654730       -3.06852249729923
C            3.73494324929796        4.26510664533509       -2.96484849613771
C            3.82820049674549        3.17744323888604       -2.09919544916754
C            2.72186755186522        2.21992676701478       -1.95871836208437
C            1.40365297348156        2.68976057187249       -1.90527536907594
C            0.33656802347648        1.84523777823089       -1.68187415261090
C            0.60412867472056        0.49366395477767       -1.52349480411254
C            1.91381691896363       -0.01595905943609       -1.66083100958865
C            2.97295889408006        0.85344287167988       -1.85973838729285
C            1.80276422817982       -1.44395413837744       -1.50637665603338
C            2.72600659254818       -2.47296250108878       -1.49145947790050
C            2.29362538893248       -3.77410805800326       -1.24956116926163
C            3.27032713436618       -4.86775442440817       -1.16149589963270
C            4.34396088681176       -4.94211586101761       -2.04731572184132
C            5.26643678412496       -5.96701454750089       -1.95215726319979
C            5.13847047401770       -6.93073909204596       -0.96533884058718
C            4.07811813507172       -6.86470759567186       -0.07671010700091
C            3.15053755966918       -5.84552805314363       -0.17576999859742
C            0.92693253550497       -4.02852022466153       -1.07002632198985
C           -0.01333111917118       -3.01857178179728       -1.08542208589679
C            0.43337864346271       -1.71891054097792       -1.27677378210056
N           -0.27827287295491       -0.53713203674229       -1.26891944388928
C           -1.52306315400569       -0.31881938888429       -0.63442186109074
C           -2.71724927738226       -0.66275393056034       -1.24712196806966
C           -3.93823596406050       -0.37858714349394       -0.63355604008494
N           -5.10035942374251       -0.69988817324880       -1.20925615766642
C           -6.25670455091224       -0.40388333553803       -0.61971260038233
C           -7.49585825379228       -0.74439013400158       -1.23916708916032
C           -7.53239255724086       -1.39406267806090       -2.48485764156792
C           -8.74481737755509       -1.70402856864212       -3.04754326177796
C           -9.90929861582290       -1.35575365576895       -2.34931414746360
N           -9.90231371315551       -0.74949344544031       -1.18970960779237
C           -8.73491965756637       -0.43755510120252       -0.62127427582808
C           -8.74002814959483        0.22925863819954        0.65611435014244
N           -9.91198619491676        0.51026297230038        1.23132230469283
C           -9.92825925334406        1.11551447423334        2.39136288325920
C           -8.76933879341666        1.49386363945713        3.08320313391218
C           -7.55240205649871        1.21568322519373        2.51367428596361
C           -7.50595939417261        0.56754771150178        1.26753137104986
C           -6.26180731106320        0.25887715096569        0.64144870863940
N           -5.11035271317314        0.58436277613291        1.22495456883208
C           -3.94339822984628        0.29272936101747        0.64321636028145
C           -2.72679741605230        0.60701932240467        1.25077771324097
C           -1.52751676358969        0.29171397486765        0.63267223009517
N           -0.28561216615407        0.53781609432818        1.26262341229363
C            0.61921822518298       -0.47352026517510        1.51598103710337
C            0.38136471819998       -1.83071043725069        1.67382699887778
C            1.46690183990989       -2.65193897271446        1.89488701192065
C            2.77473387034352       -2.15358036082447        1.94669634223947
C            3.90148419414414       -3.08758331108578        2.08302765821358
C            5.05688998929399       -2.90936495516520        1.32491080812237
C            6.10639612684891       -3.80343168490460        1.41630986695083
C            6.02493570849572       -4.88691009094124        2.27482717881755
C            4.88694328272986       -5.06802850384095        3.04299362341211
C            3.83231416435590       -4.17979123949914        2.94525058645077
C            2.99576940929644       -0.78182173225222        1.84878289166887
C            1.91765599695006        0.06444803268570        1.65194876208406
C            1.77529236446671        1.48970382660176        1.49796326438122
C            2.67582428923796        2.53864357784903        1.48279443356630
C            2.21495430678599        3.82994823647114        1.24096863056761
C            3.16737695174679        4.94484786795252        1.15300396224180
C            4.23705075639412        5.04457066081982        2.04109008069277
C            5.13618278698194        6.09007745063597        1.94661243662609
C            4.98871193891695        7.04926405833765        0.95808257009639
C            3.93227685499359        6.95793261930047        0.06701031726606
C            3.02779935093699        5.91811408392054        0.16546428456686
C            0.84302497279978        4.05451165421390        1.06180570129003
C           -0.07506946857915        3.02436271293515        1.07823457647987
C            0.40001718836476        1.73479822629674        1.26960181068364
C            4.98845093679936        3.02536350624130       -1.34284321329962
C            6.01983459825454        3.93964688789818       -1.44021677287334
H            6.72121883012846        5.73245963248780       -2.37918906899136
H            4.68769506008373        6.00789407105720       -3.75042231138915
H            2.85239828438130        4.38504949586945       -3.57677958004214
H            1.22184084126499        3.74846630967696       -2.00551610787383
H           -0.67424220533338        2.22128899813864       -1.62617051081638
H            3.98036491592953        0.47692660788405       -1.94946203661918
H            3.77518424082652       -2.26603285589752       -1.63210368967232
H            4.44011016662695       -4.20377692423089       -2.83022826505449
H            6.08840403254028       -6.01626645992813       -2.65205378377294
H            5.86148037033368       -7.72970904402343       -0.88931813796461
H            3.97519526782102       -7.61058598193955        0.69807014854087
H            2.33631974684943       -5.79076180627045        0.53123728613868
H            0.60121745232836       -5.04793068815728       -0.92598558274694
H           -1.06259214445129       -3.22926720743019       -0.94099880841372
H           -2.71792589400920       -1.13668738336481       -2.21608356080044
H           -6.59455795676974       -1.63214464637904       -2.96567918113644
H           -8.81062734783277       -2.20239132340877       -4.00179582674490
H          -10.88773527975282       -1.58067820855853       -2.75359776530439
H          -10.90997467350273        1.31456219191818        2.80122661777283
H           -8.84279569267364        1.99004568394117        4.03803396897862
H           -6.61841071680169        1.47777764302744        2.98947213953280
H           -2.73440770612150        1.08080021847128        2.21978635335296
H           -0.62112993054703       -2.22854629325454        1.61925574215573
H            1.30832400089148       -3.71443482816284        1.99435192239107
H            5.11872269779590       -2.07337459760735        0.64422033395374
H            6.99095995909934       -3.65816911140572        0.81295589280329
H            6.84497990242091       -5.58618450169668        2.34601488883311
H            4.82139701726804       -5.90622351032730        3.72196632173829
H            2.95394262220328       -4.31951474201810        3.55896934432579
H            3.99479074937765       -0.38339414451935        1.93747182537055
H            3.72932052570944        2.35482296987047        1.62332239134412
H            4.34815139857367        4.30952589893494        2.82513173983040
H            5.95524011455727        6.15895061287189        2.64826427529180
H            5.69377729871142        7.86415299808283        0.88262713907981
H            3.81436721656786        7.70008283129729       -0.70921038924456
H            2.21666224990867        5.84378485979684       -0.54329387825894
H            0.49527778949916        5.06657132082989        0.91741404312536
H           -1.12880499405000        3.21215131205437        0.93468626724202
H            5.06826905290565        2.19334630132689       -0.65917454733752
H            6.90854100332223        3.81426001526267       -0.83848999025751
