112
 energy: -179.449632735799 gnorm: 0.000028627329 xtb: 6.7.1 (edcfbbe)
C            6.20361092527286        4.50139758903188       -2.43341155483403
C            5.05801351106224        4.70218330794573       -3.18535294613966
C            3.98072309731996        3.84525797295157       -3.05482362937674
C            4.03354572450703        2.76721647933767       -2.17450883284547
C            2.87567289697149        1.87777732024912       -1.99030660743822
C            1.59513290765170        2.43336884244088       -1.88221147111054
C            0.48422262159072        1.65732356736270       -1.62386674378902
C            0.67048098519903        0.29334132914245       -1.46986396220826
C            1.93527185637807       -0.29976122709856       -1.65752438892593
C            3.04068163026404        0.50005889738172       -1.90314062772885
C            1.73590079873475       -1.71917409623820       -1.52081620141718
C            2.59700773310788       -2.80288034207562       -1.54862401994078
C            2.09338217267293       -4.08050930416507       -1.33369956799119
C            3.00281073025809       -5.23658613709430       -1.31014589711726
C            4.06969442150284       -5.32464813576732       -2.20244039418836
C            4.93792081506088       -6.39973241389164       -2.16177423275683
C            4.75957417141844       -7.40562651733746       -1.22647758871917
C            3.70203601907310       -7.33071687722126       -0.33543538451993
C            2.83071884410757       -6.25836272179025       -0.37846294290366
C            0.71978840592257       -4.25329947023742       -1.11850936195897
C           -0.15721115432406       -3.18711418338273       -1.08204263540819
C            0.35997884348949       -1.91524953986917       -1.26562823092077
N           -0.27574674682036       -0.68474114148458       -1.20815415981162
C           -1.50403459265366       -0.39633782422031       -0.60028596788812
C           -2.68682655314920       -0.82410264130860       -1.14033886144458
C           -3.91365728047842       -0.42746376185734       -0.56897617049117
N           -5.06524772614596       -0.84419963478318       -1.11179370354480
C           -6.19467134363818       -0.41970948311452       -0.57204163407347
C           -7.45002312443644       -0.85063501244337       -1.14305070243913
C           -7.49483746905377       -1.69919200350706       -2.25521129780680
C           -8.71997813663655       -2.07773858083538       -2.75854527495385
C           -9.86831060711440       -1.59432848505548       -2.12903973945019
N           -9.84718712318464       -0.79751292420722       -1.08531555471348
C           -8.67059322391997       -0.41911720473615       -0.58591741541019
C           -8.66913741766400        0.46570272611373        0.56910707650269
N           -9.84446641759943        0.85036289797109        1.06670068519164
C           -9.86293969785802        1.64721909284215        2.11044417006913
C           -8.71301236023517        2.12431392909754        2.74186717656989
C           -7.48913489973314        1.73938323437847        2.24031325936764
C           -7.44715188771029        0.89079182251795        1.12806894402336
C           -6.19323532897145        0.45336893731895        0.55887480203324
N           -5.06243482799394        0.87181510473734        1.10045543833736
C           -3.91221236435948        0.44893733191018        0.55949460155165
C           -2.68418968602278        0.83900332395722        1.13283557040761
C           -1.50283452087129        0.40501837300827        0.59461378319596
N           -0.27396763098289        0.68654875863822        1.20457074472773
C            0.66605675531526       -0.29704447630320        1.46800794192197
C            0.47155730763821       -1.65990568025530        1.62176412264915
C            1.57742834538074       -2.44241129403151        1.88224061644751
C            2.86100703436528       -1.89432882057043        1.99269780433591
C            4.01338793150402       -2.79030319582536        2.17963136417494
C            5.18051154542619       -2.59470344477274        1.44511265984598
C            6.24860991816090       -3.46314879292296        1.57210276636867
C            6.17353814276684       -4.53597471621798        2.44464739364309
C            5.02461891220670       -4.73088221295760        3.19306380641509
C            3.95227709573673       -3.86823716337153        3.05955384641877
C            3.03419669947948       -0.51759798551078        1.90569273616425
C            1.93394149096272        0.28864348611010        1.65796743908959
C            1.74310505646484        1.70919101622543        1.52096230280920
C            2.61054047888512        2.78778407060119        1.55049696680239
C            2.11484468309636        4.06840399017824        1.33494869503337
C            3.03110618661998        5.21910380707462        1.31316545441663
C            4.09732249492232        5.30045742173198        2.20690228561320
C            4.97203460297017        6.37032419976370        2.16776579051775
C            4.80092821475296        7.37764504191643        1.23265110150391
C            3.74408061932533        7.30944962807321        0.34025715391853
C            2.86632756567614        6.24229008179457        0.38170420043736
C            0.74265985029838        4.24927329949103        1.11741944398367
C           -0.14054570152599        3.18827937628508        1.07908106011210
C            0.36880838345437        1.91333717930249        1.26329837958289
C            5.19748793016397        2.56545656754000       -1.43663080709970
C            6.27049951464638        3.42826666842334       -1.56057317373250
H            7.04076733275635        5.17743170579284       -2.52837483968509
H            5.00321631720975        5.53208403567190       -3.87543704475653
H            3.09348235362621        4.00264182312999       -3.65136064189158
H            1.47950511470963        3.50239188436926       -1.97239526374074
H           -0.49730490406822        2.10055860279498       -1.53978846697167
H            4.01542404679420        0.05794978310133       -2.04231865162984
H            3.65402600786173       -2.65114006527573       -1.70160368691162
H            4.20645199496240       -4.55345989392832       -2.94671309854505
H            5.75719626974277       -6.45464017241991       -2.86456806744967
H            5.44035285887835       -8.24378659633660       -1.19299193702220
H            3.55778457100626       -8.11031406423662        0.39902455692813
H            2.02030987710506       -6.19982889290900        0.33340373666789
H            0.33319625887666       -5.25316565670885       -0.98769366621684
H           -1.21066236254933       -3.34271147914787       -0.90168691647534
H           -2.70310329543220       -1.43511331039703       -2.02963586210901
H           -6.56541218418309       -2.03431077716500       -2.68998981022418
H           -8.79645099089127       -2.72907894282219       -3.61475363587043
H          -10.85430534371143       -1.86375202659875       -2.48515426362629
H          -10.84801384875416        1.92194959304458        2.46504844381103
H           -8.78732726050866        2.77579470734817        3.59816229479560
H           -6.55858262933498        2.06944917221207        2.67655203028666
H           -2.69861193511919        1.44993530589447        2.02221738434227
H           -0.51240025366008       -2.09738259983172        1.53594715110521
H            1.45531362467371       -3.51071671334421        1.97232493993995
H            5.23701797844133       -1.76785466988645        0.75248995737961
H            7.14266190052402       -3.30557747970165        0.98569749234401
H            7.00682588762545       -5.21642165893987        2.54206751984922
H            4.96338969173076       -5.56060002598420        3.88283229502216
H            3.06249838170424       -4.02103548450737        3.65349266302011
H            4.01122085203951       -0.08114464483816        2.04669541609291
H            3.66636450157582        2.62973658417671        1.70531273626645
H            4.22846748329077        4.52821612603527        2.95109286443546
H            5.79074540168858        6.42003917528647        2.87160403492221
H            5.48688154593061        8.21161434386226        1.20031006690960
H            3.60541453442122        8.09021951635055       -0.39403385038227
H            2.05652297557559        6.18888898581646       -0.33125649019054
H            0.36216884568585        5.25143402516323        0.98629275380750
H           -1.19272276270010        3.35021553748956        0.89686585297398
H            5.24758253188627        1.73838488159846       -0.74378196958943
H            7.16196393336029        3.26610375802231       -0.97148810781949
