112
 energy: -179.450352770360 gnorm: 0.000048410535 xtb: 6.7.1 (edcfbbe)
C            6.47926762350553        1.90014606566674       -4.10658742449510
C            5.29048786303284        2.12211692311561       -4.78210128052979
C            4.09849621675260        1.64561900643573       -4.26758666620339
C            4.07761281326163        0.93272063670778       -3.07119605925666
C            2.81563872175510        0.41240116334540       -2.52068310893224
C            1.66902887866090        1.21556456883720       -2.50761709474257
C            0.47726568795966        0.77877307837006       -1.96478953429242
C            0.44265797199661       -0.49161068675076       -1.41134721279496
C            1.56306216908476       -1.34586366740651       -1.48811089423188
C            2.75340428327575       -0.88487446835300       -2.02585241482132
C            1.14970441249521       -2.61160652277167       -0.94348540658785
C            1.80278746690853       -3.81887706908726       -0.75417664851310
C            1.11463787555124       -4.88142016923256       -0.18052783332420
C            1.78032140042248       -6.17825381677067        0.02347365078878
C            1.11167927105127       -7.37158392786077       -0.24220016495868
C            1.73867675140662       -8.58897294577143       -0.05009487802107
C            3.04205115730415       -8.63632637428242        0.41654575415875
C            3.71695539581037       -7.45664873146232        0.68388772172823
C            3.09332527503740       -6.23869093350995        0.48582179275673
C           -0.21900459497039       -4.70858331087708        0.21217146875171
C           -0.88624978539600       -3.51209162131332        0.03826448751867
C           -0.20015389305440       -2.46455223423433       -0.55683059903245
N           -0.61369100777716       -1.16771598645915       -0.82288597757208
C           -1.81609597626670       -0.59743628980201       -0.40483166761641
C           -3.00978067630336       -1.19064780452809       -0.73278140733005
C           -4.23325147856757       -0.61379092760982       -0.34376634854897
N           -5.38750321284417       -1.21268440631870       -0.66772396275657
C           -6.51299178158485       -0.62335858909952       -0.30326317251677
C           -7.77147202337780       -1.25167447556179       -0.63405470249516
C           -7.82229292393773       -2.46934775223076       -1.32213158594250
C           -9.04968121679418       -3.02505861006989       -1.60899214536274
C          -10.19434090167662       -2.34076837961504       -1.19683948718248
N          -10.16786991450871       -1.19807417851380       -0.55007151979420
C           -8.98881768205787       -0.64595516903184       -0.26353309322580
C           -8.98127964936307        0.61961204410227        0.45412319474268
N          -10.15392692505985        1.16194760030942        0.78245465586061
C          -10.16689284700906        2.30400531177681        1.43074093954011
C           -9.01402243838073        2.99740371623111        1.80272159561632
C           -7.79297835768896        2.45199936191215        1.47226534742439
C           -7.75652156492598        1.23494894742637        0.78210725844960
C           -6.50541202922652        0.61577539785009        0.40859466096934
N           -5.37238216936800        1.21254669321015        0.73559690572695
C           -4.22554022672663        0.62007266185422        0.37551164373961
C           -2.99374099500233        1.20116830534012        0.73026107566039
C           -1.80771829013972        0.60917727423760        0.37382575810854
N           -0.59672190522604        1.17746030288158        0.76949475031882
C            0.46267114942662        0.50085964324626        1.35023601855312
C            0.49986352795581       -0.77124294532584        1.89959709521933
C            1.69483385219783       -1.21054739539293        2.43153561470102
C            2.83906751531160       -0.40267042535996        2.45467502956722
C            4.09459192504605       -0.92956047125481        3.01278227141066
C            4.89788073199682       -0.14446456132570        3.83702838077228
C            6.07366306133684       -0.64864485293720        4.36227211157853
C            6.47041270560808       -1.94278046236031        4.06817804651633
C            5.68145425508168       -2.73152467412305        3.24678050800689
C            4.50308423435031       -2.23042775074620        2.72530325783529
C            2.77226291911605        0.89768642844158        1.96820375533831
C            1.58309577679908        1.35539971358957        1.42404307026932
C            1.16679077785801        2.62176254596687        0.88237943609898
C            1.81592787997027        3.83145585582606        0.69500046679857
C            1.12333194537591        4.89313945418656        0.12489591107110
C            1.78360151391045        6.19380296342153       -0.07142190440745
C            2.60673565595565        6.72553285312401        0.91935793860903
C            3.22075182584411        7.95186673481270        0.74338002286414
C            3.02704473267241        8.66674564261457       -0.42719872141146
C            2.21462180713794        8.14615772806140       -1.42101916168473
C            1.59664294908171        6.92169723594994       -1.24470436088111
C           -0.21190301835365        4.71952674093820       -0.26147222190203
C           -0.87826386087334        3.52353050173028       -0.08104710237579
C           -0.18590460189511        2.47507428513760        0.50481587670130
C            5.27904379467364        0.71438552635133       -2.40027222497067
C            6.46913346523997        1.19715601562418       -2.91291754582057
H            7.40965504101413        2.27422041543792       -4.50852226639069
H            5.29308164225205        2.66719323517715       -5.71534232136619
H            3.17602174796862        1.80765760027096       -4.80663451834083
H            1.72411659137592        2.21298569448215       -2.91743758475079
H           -0.39765829858387        1.41111092243027       -1.98073260696428
H            3.61514205889716       -1.53242726917694       -2.08113182187688
H            2.82949083766178       -3.93492389161318       -1.06628911751528
H            0.10027904771826       -7.34250103570350       -0.62143201475253
H            1.20885914975067       -9.50568942177450       -0.26678571105068
H            3.52961378014898       -9.58804037021671        0.56988669842228
H            4.73328851377603       -7.48677888114265        1.05018916776415
H            3.62212714243816       -5.32319628870446        0.70722499517445
H           -0.73445782283219       -5.53112636919584        0.68538960502820
H           -1.90856581533492       -3.40148074187574        0.36851115336591
H           -3.03326234876286       -2.09215405382261       -1.32495252442176
H           -6.89534774163296       -2.94158379628336       -1.61017818732710
H           -9.13076760860043       -3.96193532828371       -2.13704394617776
H          -11.18203760465644       -2.73496123328716       -1.39859691336219
H          -11.15000603157187        2.69001012990765        1.66769287378969
H           -9.08404179013079        3.93326685262463        2.33415388197093
H           -6.86047885989694        2.93176049667736        1.72814558558249
H           -3.00353800276012        2.10259867340346        1.32299091698068
H           -0.37711413850683       -1.40034748241158        1.92652769990132
H            1.74185191144234       -2.19797599484565        2.86595631574390
H            4.58580792756980        0.85987424354726        4.08489200176683
H            6.68221233863551       -0.03035097728438        5.00681964050650
H            7.38950571668648       -2.33537968752049        4.47830049856293
H            5.98777714813528       -3.74117711304118        3.01254819829311
H            3.89491558229125       -2.84285176332621        2.07566515599378
H            3.63970956722718        1.53916981049476        1.99669067464310
H            2.85478945038934        3.93888389085834        0.96693642115841
H            2.74748729159647        6.18100206685097        1.84205682436806
H            3.85064235767876        8.35390943239340        1.52416425974300
H            3.50675401699298        9.62497422380603       -0.56420728117801
H            2.06304585647834        8.69695781363343       -2.33851238516243
H            0.97716619719000        6.51533471588091       -2.03134795614432
H           -0.74257013052081        5.55400489674559       -0.69534018880606
H           -1.90643092688969        3.41575775457310       -0.39353260042493
H            5.27277396134926        0.17803720093960       -1.46183088944325
H            7.39300395523054        1.02525928808688       -2.37910267257581
