32
 energy: -48.910308671156 gnorm: 0.000043564417 xtb: 6.7.1 (edcfbbe)
C            2.84117448147525        2.42383332114865        0.04288944540375
C            3.53248263616361        1.22017135806500        0.02112642265214
C            2.83601762326036       -0.00003037399708       -0.00026154731303
C            3.53244461469911       -1.22025558169755       -0.02163382915627
C            2.84109402332532       -2.42389291580421       -0.04348654544872
C            1.46979861805691       -2.43923888816609       -0.03642424499972
C            0.71120796096847       -1.23521671722425       -0.00908886359785
C           -0.71124430309438       -1.23518791372996        0.00892146018955
C           -1.46987846297586       -2.43917316956039        0.03667214539633
C           -2.84117332107001       -2.42377524699258        0.04372741284073
C           -3.53248042183337       -1.22012058806948        0.02145821252813
C           -2.83600935690694        0.00007201006799       -0.00033428799830
C           -3.53243029992338        1.22029144344496       -0.02214432962449
C           -2.84107866140957        2.42392087990149       -0.04432196081493
C           -1.46978414996350        2.43926590747283       -0.03721337357070
C           -0.71119875606895        1.23525183846258       -0.00951463656033
C            0.71125162865292        1.23522925225192        0.00849431217601
C            1.46988051893460        2.43922540636997        0.03577704660202
C            1.41048292704722       -0.00000537175156       -0.00028512265045
C           -1.41047466187148        0.00004556683537       -0.00030924663301
H            3.38916456210313        3.35488888138348        0.06525276340697
H            4.61220891213252        1.20840531218603        0.02353677214084
H            4.61217234481725       -1.20852813625808       -0.02398507866310
H            3.38905251080629       -3.35496701795942       -0.06588647912013
H            0.96614667289495       -3.39095880782688       -0.05725710660687
H           -0.96626089787821       -3.39090401591920        0.05783451230531
H           -3.38916544563117       -3.35482178918744        0.06644805599517
H           -4.61220774780636       -1.20835335298226        0.02380381727663
H           -4.61215698058776        1.20856352765928       -0.02455202235447
H           -3.38903510053068        3.35498844105088       -0.06700730266926
H           -0.96613486160678        3.39098008287698       -0.05827371396557
H            0.96626559750312        3.39096496980646        0.05650959867754
