  32
        -48.90543774
 C          2.8420737054        2.4236053759        0.0138823408
 C          3.5328831756        1.2203945849        0.0068635870
 C          2.8364098139        0.0000106529        0.0000317262
 C          3.5330228502       -1.2203094256       -0.0066019471
 C          2.8423077409       -2.4235921909       -0.0131860097
 C          1.4701803201       -2.4388796233       -0.0109076987
 C          0.7119682158       -1.2355203160       -0.0028271187
 C         -0.7120070866       -1.2355131899        0.0025699372
 C         -1.4702248544       -2.4388979403        0.0099055582
 C         -2.8423587996       -2.4235777702        0.0128038563
 C         -3.5330307086       -1.2202683960        0.0078982785
 C         -2.8363653040        0.0000399029        0.0008728678
 C         -3.5328333323        1.2204255496       -0.0055373059
 C         -2.8420193990        2.4236201464       -0.0135614682
 C         -1.4699777942        2.4388513557       -0.0124991218
 C         -0.7119458358        1.2354132252       -0.0033186889
 C          0.7119436914        1.2354001912        0.0022847842
 C          1.4699912904        2.4388146975        0.0114262133
 C          1.4109953506       -0.0000399942       -0.0003373328
 C         -1.4109929587       -0.0000154692       -0.0000306894
 H          3.3897412191        3.3550950254        0.0220136675
 H          4.6126148457        1.2084289468        0.0071767762
 H          4.6126168263       -1.2082630825       -0.0071914241
 H          3.3900588422       -3.3550072835       -0.0179543512
 H          0.9672270660       -3.3910841982       -0.0164160214
 H         -0.9672870223       -3.3910952147        0.0155540093
 H         -3.3901175926       -3.3549559089        0.0197665997
 H         -4.6126729550       -1.2082114171        0.0089978931
 H         -4.6127536084        1.2084581373       -0.0056165269
 H         -3.3896895803        3.3551220744       -0.0223402251
 H         -0.9668914173        3.3910481760       -0.0214700411
 H          0.9669140850        3.3909251035        0.0206759226
