32
 energy: -48.910316671786 gnorm: 0.000025796587 xtb: 6.7.1 (edcfbbe)
C            2.84146714507616        2.42415233277174        0.01176283528467
C            3.53267018666358        1.22027131395084        0.00604374576459
C            2.83607129055779       -0.00001996235615        0.00031818670258
C            3.53263012330096       -1.22032993149042       -0.00526107287719
C            2.84139801161568       -2.42418926207492       -0.01117054751543
C            1.47010181295859       -2.43947628636896       -0.00947297152001
C            0.71126266614316       -1.23528752184709       -0.00224744537863
C           -0.71130326062201       -1.23527166005423        0.00244577701580
C           -1.47016857753224       -2.43944319242279        0.00976657664474
C           -2.84146431445689       -2.42412584924781        0.01156749433189
C           -3.53267051180938       -1.22025167620280        0.00565159644038
C           -2.83608551665707        0.00004248859354       -0.00008262576890
C           -3.53265776710692        1.22034858045240       -0.00585738960048
C           -2.84142852785985        2.42421372327048       -0.01177605617715
C           -1.47012746985252        2.43951161490936       -0.00989364403891
C           -0.71127885103834        1.23531994009828       -0.00245446483499
C            0.71129206537039        1.23530458042358        0.00244528360155
C            1.47016677390038        2.43948059594702        0.00977349430102
C            1.41051157094252       -0.00000179970380        0.00017023879480
C           -1.41052546985033        0.00002907153758       -0.00003250656431
H            3.38949244448884        3.35543430555379        0.01774443081212
H            4.61239704955695        1.20842182810252        0.00677439494292
H            4.61236094326714       -1.20850839909474       -0.00572746434451
H            3.38940218331099       -3.35548649466718       -0.01704257790961
H            0.96678980918478       -3.39156437500190       -0.01510354485867
H           -0.96687691333306       -3.39154207156709        0.01540775193492
H           -3.38948853189171       -3.35541082375719        0.01755942217386
H           -4.61240056499307       -1.20840578596106        0.00624790940202
H           -4.61238331814637        1.20852319341928       -0.00647934265269
H           -3.38943389103950        3.35550681505777       -0.01783382102456
H           -0.96681888594690        3.39159725345860       -0.01556476728893
H            0.96687909772723        3.39157918562947        0.01524915113622
