32
 energy: -48.967890158199 gnorm: 0.000044452430 xtb: 6.7.1 (edcfbbe)
C            2.86074537893803        2.40661411205275       -0.00001466660465
C            3.54355393869440        1.22257279479732       -0.00001462632048
C            2.84411043776558        0.00000150979153       -0.00000978755763
C            3.54355523011290       -1.22256901308581       -0.00000980097749
C            2.86074792350645       -2.40661107454966       -0.00000537497253
C            1.46633982282479       -2.41317675117470       -0.00000087288426
C            0.72932337733523       -1.24103954043912       -0.00000028613021
C           -0.72932210927117       -1.24104035936309        0.00000488074249
C           -1.46633722561970       -2.41317826750194        0.00000928944940
C           -2.86074532918982       -2.40661420429184        0.00001436037763
C           -3.54355400888265       -1.22257270783033        0.00001444887990
C           -2.84411055327127       -0.00000151151685        0.00000981428539
C           -3.54355530713491        1.22256892772016        0.00001055140630
C           -2.86074788436179        2.40661116457703        0.00000656039981
C           -1.46633980116895        2.41317670762542        0.00000143143366
C           -0.72932343508054        1.24103958264326        0.00000026266347
C            0.72932205292504        1.24104032413197       -0.00000498301204
C            1.46633725244359        2.41317830875156       -0.00000995687467
C            1.42265676628298        0.00000075634114       -0.00000492215407
C           -1.42265682168234       -0.00000075790725        0.00000509327149
H            3.39331870975434        3.34663421398769       -0.00001857217033
H            4.62378750132118        1.20425627950808       -0.00001813262443
H            4.62378877447217       -1.20425139927520       -0.00001330891762
H            3.39332228932953       -3.34663059077070       -0.00000539485658
H            0.97258536975985       -3.37139386798091        0.00000291196740
H           -0.97258168553636       -3.37139490665138        0.00000877317205
H           -3.39331863174763       -3.34663422849388        0.00001668445587
H           -4.62378755404125       -1.20425623489476        0.00001750494366
H           -4.62378883210927        1.20425132946133        0.00001480537576
H           -3.39332218949531        3.34663061991436        0.00000731742576
H           -0.97258526908233        3.37139386692786       -0.00000174920134
H            0.97258181221620        3.37139491749944       -0.00001025499171
