  47
        -71.41679109
 C         -1.1573208216       -2.7057182554        1.1226350764
 C         -0.5170985549       -1.9315583356       -0.0588665562
 C         -0.9420224274       -2.4851580497       -1.4377658918
 C          0.9846429993       -2.1489069588        0.0145826048
 C          1.4749559484       -3.4474073145        0.0409051577
 C          2.8313102739       -3.7139749811        0.0733698672
 C          3.7290021658       -2.6610904749        0.0785437557
 C          3.2664190374       -1.3618912059        0.0559957326
 C          1.8953629158       -1.0932659027        0.0241307572
 N          1.4397792605        0.2131523541        0.0037054203
 C          2.4030546692        1.2627036406       -0.0078465809
 C          2.8361516793        1.7890951851       -1.2181280672
 C          3.7817627485        2.7993654957       -1.2298109712
 C          4.2967670406        3.2830259679       -0.0383735497
 C          3.8661759770        2.7564671162        1.1684179449
 C          2.9202673001        1.7468016946        1.1874680146
 C          0.0927257487        0.5204661195        0.0194040852
 C         -0.2577503091        1.8915797823        0.0582640294
 C         -1.5572030944        2.2847062281        0.0688926865
 C         -2.5913428974        1.3300395226        0.0431612254
 C         -3.9347420996        1.7529827986        0.0476841662
 C         -4.9331673985        0.8267666942        0.0200307391
 F         -6.2303440574        1.2250131072        0.0228229894
 C         -4.6511479448       -0.5415607103       -0.0109007730
 C         -3.3507408146       -0.9621179381       -0.0135112509
 C         -2.2600843437       -0.0555255946        0.0113212210
 C         -0.8928573673       -0.4571729582        0.0027327934
 H         -1.8064864989       -2.0624178007        1.7091012146
 H         -0.3805033894       -3.0728906177        1.7900314391
 H         -1.7314703434       -3.5622410764        0.7772322593
 H         -0.3201663981       -2.0315590704       -2.2081945788
 H         -0.7974364926       -3.5615188852       -1.4789881045
 H         -1.9762633456       -2.2597375077       -1.6729107659
 H          0.7803480407       -4.2736311961        0.0379550123
 H          3.1824584726       -4.7342190371        0.0917804234
 H          4.7919619334       -2.8486281901        0.1013864405
 H          3.9712258224       -0.5449313376        0.0612600015
 H          2.4262503384        1.4033364054       -2.1397309115
 H          4.1164788200        3.2088046762       -2.1708022749
 H          5.0348663012        4.0706610580       -0.0502052027
 H          4.2674339399        3.1321503473        2.0977802790
 H          2.5766351374        1.3268150796        2.1215524304
 H          0.5269047989        2.6312290940        0.0789841933
 H         -1.8115958309        3.3336471546        0.0964667207
 H         -4.1636055037        2.8071012152        0.0720130979
 H         -5.4667121235       -1.2474645209       -0.0314470161
 H         -3.1762267181       -2.0211508708       -0.0311017395
