  66
        -88.32906172
 C         -6.4219725964        4.0223699574       -0.4008121716
 C         -7.0764100250        2.7069567887        0.0446550384
 C         -8.2652508022        2.4291390201       -0.8791369119
 C         -7.6080867310        2.8506710475        1.4776988973
 C         -6.0358209311        1.5991712249        0.0108099691
 C         -6.1646181940        0.4600462863       -0.7742136300
 C         -5.1954250746       -0.5266002886       -0.7738211456
 C         -4.0523448172       -0.4124170333        0.0098002752
 C         -3.0194395294       -1.4581225641        0.0083498163
 C         -3.3922332896       -2.8095977325        0.0045180234
 C         -2.4593540352       -3.8261941474        0.0051813118
 C         -1.1179158275       -3.4757332993        0.0030109585
 N          0.0001476546       -4.2708912903       -0.0020201322
 C          1.1189294163       -3.4765621427       -0.0045005884
 C          2.4601249378       -3.8279558444       -0.0086098228
 C          3.3938578650       -2.8120788166       -0.0059275267
 C          3.0220282512       -1.4603242983       -0.0054901720
 C          4.0546942529       -0.4144216531       -0.0074536717
 C          5.2031912176       -0.5309980677        0.7677121287
 C          6.1713385647        0.4567639422        0.7660120948
 C          6.0357625030        1.5998545303       -0.0120636621
 C          7.0736990984        2.7100326093       -0.0465107676
 C          7.5808721944        2.8790080468       -1.4858471994
 C          6.4233484998        4.0162192086        0.4314820837
 C          8.2790729536        2.4200365764        0.8519801715
 C          4.8837128504        1.7118258742       -0.7873021580
 C          3.9131766276        0.7313248626       -0.7864771957
 C          1.6761253565       -1.1156223117       -0.0054203855
 C          0.7199207017       -2.1191715479       -0.0019118775
 C         -0.7179441455       -2.1185909035        0.0053863457
 C         -1.6733948871       -1.1142675470        0.0114609939
 C         -3.9174897768        0.7293319850        0.7956992468
 C         -4.8897996200        1.7081886848        0.7953896803
 H         -7.1571751779        4.8244650410       -0.4052375936
 H         -6.0171291462        3.9187416834       -1.4055582134
 H         -5.6120359429        4.3063519797        0.2649487261
 H         -8.9747146008        3.2516401670       -0.8139665540
 H         -7.9438639489        2.3437736088       -1.9144736466
 H         -8.7809512802        1.5169797314       -0.5885262926
 H         -8.0546776897        1.9150912008        1.8078644932
 H         -6.8128375438        3.1110653962        2.1703270433
 H         -8.3662992364        3.6298188392        1.5201108292
 H         -7.0275653459        0.3233913741       -1.4056108635
 H         -5.3206996082       -1.3907530121       -1.4104738860
 H         -4.4430328266       -3.0583893807        0.0230939413
 H         -2.7658796642       -4.8619078882        0.0097178440
 H          0.0001616820       -5.2766350910       -0.0041949422
 H          2.7658369151       -4.8639195963       -0.0166546129
 H          4.4444009333       -3.0618794665       -0.0265845037
 H          5.3341789935       -1.3980241452        1.3991849249
 H          7.0391026882        0.3177746338        1.3901029696
 H          8.0202794785        1.9489621942       -1.8409739560
 H          8.3394419706        3.6578388111       -1.5270977461
 H          6.7744787564        3.1535224072       -2.1600109016
 H          5.5937798342        4.3021788888       -0.2091406015
 H          6.0460608319        3.8983471840        1.4454202317
 H          7.1531889219        4.8230604967        0.4255601682
 H          8.7888631715        1.5113733449        0.5403122663
 H          8.9875370442        3.2432377609        0.7845649171
 H          7.9768753389        2.3215782659        1.8920301899
 H          4.7347233925        2.5807808998       -1.4110218420
 H          3.0409479271        0.8441349376       -1.4142029083
 H          1.3776009112       -0.0783112847        0.0135796936
 H         -1.3742616333       -0.0770173448       -0.0037378062
 H         -3.0493519474        0.8401311540        1.4296150129
 H         -4.7470976024        2.5735710064        1.4256343423
  66
        -88.32899890
 C         -7.6180705478        2.7917090502       -1.5136564117
 C         -7.0865986063        2.6951393570       -0.0765558599
 C         -8.2748870958        2.4479597905        0.8564121196
 C         -6.4323306933        4.0245472654        0.3252962592
 C         -6.0464990047        1.5886216169       -0.0083498644
 C         -4.8977984020        1.6780852034       -0.7913028885
 C         -3.9263674321        0.6992290757       -0.7639503325
 C         -4.0645371678       -0.4230964843        0.0490091987
 C         -3.0294924915       -1.4663122834        0.0714779112
 C         -3.3954041805       -2.8192813525        0.0928585256
 C         -2.4569936827       -3.8311206674        0.0917472604
 C         -1.1173867290       -3.4739862197        0.0751965149
 N          0.0053289712       -4.2627160026        0.0630596365
 C          1.1193320174       -3.4620072888        0.0424900590
 C          2.4624925108       -3.8044434039        0.0169461524
 C          3.3894246883       -2.7824418293        0.0020368381
 C          3.0100808935       -1.4326850546        0.0088577835
 C          4.0374097440       -0.3818153549       -0.0073459562
 C          3.8738914811        0.7729792449       -0.7648752689
 C          4.8416329306        1.7608683838       -0.7832704158
 C          6.0124769375        1.6389780451       -0.0453307924
 C          7.1074368195        2.6936056342       -0.0425249751
 C          6.7577849551        3.9107305135       -0.9026649256
 C          7.3393169390        3.1777509219        1.3956439464
 C          8.3969856349        2.0701442971       -0.5946786543
 C          6.1705867580        0.4820694105        0.7143735224
 C          5.2088300119       -0.5067742097        0.7355929573
 C          1.6619817208       -1.0971025366        0.0283148381
 C          0.7127346567       -2.1069821654        0.0458528374
 C         -0.7248212967       -2.1147876070        0.0640911505
 C         -1.6852390629       -1.1156617183        0.0588687829
 C         -5.2104691297       -0.5185311097        0.8303851707
 C         -6.1789025995        0.4688467524        0.8034098827
 H         -8.3718328122        3.5730545030       -1.5836416963
 H         -8.0699259324        1.8476515657       -1.8109171376
 H         -6.8214221146        3.0228214721       -2.2148838186
 H         -8.7938657414        1.5292486162        0.5936929798
 H         -7.9521726698        2.3920249323        1.8932758516
 H         -8.9820869755        3.2701734633        0.7682007361
 H         -6.0289952517        3.9546744581        1.3334219577
 H         -5.6213620199        4.2863058193       -0.3483160810
 H         -7.1671851977        4.8265379883        0.3015513279
 H         -4.7524361395        2.5274497712       -1.4421507417
 H         -3.0561814641        0.7936496235       -1.3975027782
 H         -4.4450127823       -3.0737375003        0.0856711970
 H         -2.7585019269       -4.8683168890        0.0978537134
 H          0.0103134394       -5.2684371214        0.0672670961
 H          2.7755382350       -4.8381594356        0.0041615509
 H          4.4406443855       -3.0266678101       -0.0388897215
 H          2.9848422755        0.8931429439       -1.3672244659
 H          4.6650812969        2.6326665900       -1.3922895645
 H          6.6168438307        3.6274761699       -1.9428908872
 H          7.5717964047        4.6315155754       -0.8585952584
 H          5.8562783254        4.3988598590       -0.5400290251
 H          6.4220350193        3.5977809708        1.8026488339
 H          7.6574754204        2.3647471112        2.0416111501
 H          8.1088573990        3.9467679958        1.4124548152
 H          8.2348828353        1.7084318031       -1.6078998794
 H          9.1936911047        2.8109626664       -0.6151377477
 H          8.7237210573        1.2340992247        0.0170659932
 H          7.0626143078        0.3428157405        1.3067826340
 H          5.3591492322       -1.3814606824        1.3518278089
 H          1.3559557206       -0.0621402873        0.0529920423
 H         -1.3912406796       -0.0769160118        0.0631291803
 H         -5.3392443507       -1.3679440399        1.4859423711
 H         -7.0451550759        0.3475344745        1.4334582623
  66
        -88.32897546
 C         -8.4337717771        2.0360444409        0.4665304650
 C         -7.1251989767        2.6747621979       -0.0199061283
 C         -6.8134986504        3.8703509712        0.8841953342
 C         -7.3019559888        3.1932052333       -1.4539453477
 C         -6.0272394923        1.6234941311       -0.0015329247
 C         -6.1644785717        0.4711371737       -0.7721827994
 C         -5.2003774955       -0.5161025880       -0.7761114259
 C         -4.0460830915       -0.3903536920       -0.0077162327
 C         -3.0155166668       -1.4382639140        0.0033216508
 C         -3.3897206864       -2.7889022208        0.0354089800
 C         -2.4577384725       -3.8059667979        0.0688752460
 C         -1.1158380968       -3.4570851159        0.0635138749
 N          0.0019677668       -4.2521451770        0.0975528522
 C          1.1212309632       -3.4585264388        0.0807925901
 C          2.4622395573       -3.8094993761        0.1127236535
 C          3.3961906274       -2.7938180409        0.0910288955
 C          3.0239339255       -1.4441611514        0.0264741596
 C          4.0565358891       -0.3982692280       -0.0060094001
 C          5.1675930972       -0.4548995126        0.8307642710
 C          6.1270601526        0.5363863698        0.8001917668
 C          6.0310902809        1.6190717953       -0.0710625077
 C          7.1124721145        2.6877154845       -0.0623291073
 C          6.8851685596        3.7669988018       -1.1241577570
 C          7.1244761009        3.3637444540        1.3159448780
 C          8.4752036284        2.0349158223       -0.3325565923
 C          4.9224644382        1.6685740346       -0.9072254692
 C          3.9520793985        0.6838294357       -0.8727122312
 C          1.6789981796       -1.0992341848       -0.0082681853
 C          0.7226988454       -2.1021092895        0.0259437524
 C         -0.7149168415       -2.1009889440        0.0213153434
 C         -1.6691256342       -1.0960483568       -0.0051979019
 C         -3.9006641290        0.7621757018        0.7568294709
 C         -4.8720833760        1.7462534953        0.7606901747
 H         -8.7389797715        1.2183449416       -0.1803757424
 H         -9.2308259206        2.7765684507        0.4795070802
 H         -8.3085354196        1.6449744873        1.4742443229
 H         -6.7041085897        3.5586483067        1.9202376195
 H         -5.9046241134        4.3749817913        0.5650724188
 H         -7.6313484468        4.5864202551        0.8332321595
 H         -6.3720319498        3.6294376542       -1.8128105475
 H         -7.5867920389        2.3935566677       -2.1317665829
 H         -8.0761418407        3.9571256658       -1.4831277908
 H         -7.0414937598        0.3343877441       -1.3872921538
 H         -5.3344739258       -1.3890648768       -1.3987341675
 H         -4.4407900676       -3.0362325404        0.0593139931
 H         -2.7654391737       -4.8407290776        0.1043351051
 H          0.0001578049       -5.2571327555        0.1359998621
 H          2.7677463319       -4.8447755070        0.1516089666
 H          4.4473410968       -3.0420602758        0.1016744235
 H          5.2673420053       -1.2734667169        1.5291656463
 H          6.9662523694        0.4594225943        1.4754894123
 H          6.8728380769        3.3350098199       -2.1220978386
 H          7.6939171078        4.4938176406       -1.0813461173
 H          5.9506369077        4.2955011387       -0.9522027069
 H          6.1576789912        3.8200466807        1.5185138704
 H          7.3336912177        2.6462454812        2.1044913162
 H          7.8865670703        4.1395769597        1.3473279664
 H          8.4620649128        1.5210335035       -1.2914354682
 H          9.2548135908        2.7933890719       -0.3575758036
 H          8.7300641917        1.3129242752        0.4377498088
 H          4.7968864958        2.4807984375       -1.6046876309
 H          3.1088091024        0.7457638130       -1.5457170772
 H          1.3822552418       -0.0616368635       -0.0394256861
 H         -1.3686672813       -0.0601903171       -0.0508408958
 H         -3.0239844807        0.8815844365        1.3771891633
 H         -4.7119623871        2.6147958799        1.3786815762
  66
        -88.32896478
 C         -8.4568256645        2.0507291752        0.1634791868
 C         -7.0983681567        2.6881848024       -0.1605109569
 C         -6.8705426030        3.8428441031        0.8186191558
 C         -7.1209155588        3.2630643793       -1.5840430345
 C         -6.0135722130        1.6262812080       -0.0776190758
 C         -6.1038975284        0.4879170514       -0.8754833136
 C         -5.1444944980       -0.5027921084       -0.8334268311
 C         -4.0395640846       -0.3914140384        0.0063131716
 C         -3.0105166735       -1.4403008165        0.0511899737
 C         -3.3888093441       -2.7899162809        0.0631626169
 C         -2.4599203037       -3.8093156250        0.1077113259
 C         -1.1175325863       -3.4630306732        0.1293205914
 N         -0.0024581800       -4.2619681202        0.1593472394
 C          1.1192027812       -3.4717748627        0.1566179701
 C          2.4590808757       -3.8280624290        0.1689689741
 C          3.3965636394       -2.8160347770        0.1394122505
 C          3.0294069384       -1.4635406335        0.1070447590
 C          4.0649642978       -0.4214106303        0.0600931394
 C          5.1885628835       -0.5605217580       -0.7470610499
 C          6.1539659748        0.4280046804       -0.8063289353
 C          6.0411833335        1.5932740199       -0.0581675638
 C          7.0751281445        2.7072033590       -0.0947845260
 C          6.3961607153        4.0055811783       -0.5536366817
 C          7.6582259557        2.8953957954        1.3127474462
 C          8.2302677784        2.4095204814       -1.0544936941
 C          4.9175415668        1.7244143916        0.7548075376
 C          3.9482752655        0.7441908939        0.8127611960
 C          1.6851151472       -1.1132947020        0.1076939940
 C          0.7252206008       -2.1131984167        0.1270388207
 C         -0.7124585247       -2.1074904913        0.1113684151
 C         -1.6641641780       -1.0999678793        0.0797713901
 C         -3.9397753907        0.7469993991        0.7980577391
 C         -4.9096283265        1.7323305593        0.7593453891
 H         -9.2414569894        2.8037645156        0.1301051511
 H         -8.4387577380        1.6143126837        1.1600671791
 H         -8.7074753010        1.2680907389       -0.5466071299
 H         -6.8529366033        3.4855131018        1.8455480033
 H         -5.9382381961        4.3597404639        0.6040864677
 H         -7.6818033626        4.5621393521        0.7259798072
 H         -6.1554939454        3.7025644991       -1.8264272887
 H         -7.3366088054        2.4911743971       -2.3174890878
 H         -7.8828834120        4.0352964503       -1.6654162289
 H         -6.9385432836        0.3657453051       -1.5497149381
 H         -5.2401860992       -1.3659486136       -1.4765518127
 H         -4.4409928130       -3.0338952490        0.0579097508
 H         -2.7701938928       -4.8437801246        0.1251252704
 H         -0.0067146567       -5.2673701670        0.1800821376
 H          2.7609522159       -4.8647083396        0.1995733089
 H          4.4464308206       -3.0687265068        0.1605117323
 H          5.2992941800       -1.4451862827       -1.3576531695
 H          6.9997009587        0.2728525255       -1.4563282370
 H          5.9491037860        3.8681855819       -1.5358416155
 H          7.1268931798        4.8090925265       -0.6155784449
 H          5.6148110915        4.3088766613        0.1369207779
 H          6.8848602918        3.1579334895        2.0286783828
 H          8.1346569464        1.9764692588        1.6473813302
 H          8.4025154290        3.6887903715        1.3072800523
 H          7.8700514195        2.2913908142       -2.0736953593
 H          8.9354534951        3.2381876536       -1.0407366825
 H          8.7639291338        1.5099393286       -0.7574067515
 H          4.7895075706        2.6094151324        1.3603446587
 H          3.0961884523        0.8739886230        1.4646394019
 H          1.3909217703       -0.0754017896        0.0655801823
 H         -1.3621980936       -0.0637264454        0.0540268912
 H         -3.1005639224        0.8546538555        1.4704361571
 H         -4.7874493926        2.5903684040        1.4003501787
  66
        -88.32896351
 C         -7.7079706218        2.7480957355       -1.5456222458
 C         -7.2077251192        2.6309235273       -0.0988364278
 C         -8.4075093437        2.3045926117        0.7946399295
 C         -6.6218451399        3.9740027616        0.3582461093
 C         -6.1238207267        1.5666705610       -0.0369619071
 C         -6.2256651895        0.4255300429        0.7490268958
 C         -5.2259964538       -0.5298451839        0.7616859325
 C         -4.0781498907       -0.3820192204       -0.0095618300
 C         -3.0296343676       -1.4124079665       -0.0151076648
 C         -3.3944889982       -2.7661629810       -0.0321163322
 C         -2.4558336211       -3.7764959171       -0.0483318338
 C         -1.1170930049       -3.4169269126       -0.0411794855
 N          0.0030679416       -4.2080566684       -0.0509573016
 C          1.1184525025       -3.4102369361       -0.0370328448
 C          2.4593637599       -3.7617395077       -0.0400903939
 C          3.3918664186       -2.7456835543       -0.0263441447
 C          3.0187214843       -1.3942853743       -0.0033548110
 C          4.0608700089       -0.3578174241        0.0226193062
 C          5.2106339176       -0.4761877121       -0.7544684044
 C          6.1990265955        0.4851238485       -0.7088934948
 C          6.0914630501        1.6045879726        0.1131767455
 C          7.2198112926        2.6230066105        0.1428723106
 C          6.9425005554        3.7842243429        1.1011498862
 C          8.5088312664        1.9245084461        0.5988655659
 C          7.4137659361        3.2009668439       -1.2660006641
 C          4.9378851555        1.7243861600        0.8782890970
 C          3.9418387995        0.7655646001        0.8332306968
 C          1.6727574633       -1.0495890875        0.0043561225
 C          0.7160246888       -2.0536456526       -0.0161804335
 C         -0.7229291785       -2.0579429408       -0.0219725629
 C         -1.6857231197       -1.0595075354       -0.0126312519
 C         -3.9644969707        0.7678939717       -0.7864795002
 C         -4.9671558597        1.7160184853       -0.7988886615
 H         -8.4989119217        3.4924762384       -1.6097122141
 H         -8.1038685525        1.7927779862       -1.8841663928
 H         -6.9076911764        3.0425050939       -2.2185390802
 H         -8.8756633259        1.3701637015        0.4941951321
 H         -8.1108823553        2.2363637740        1.8385745229
 H         -9.1497511271        3.0954638869        0.7072656421
 H         -6.2480270176        3.8930595085        1.3768418513
 H         -5.8014792494        4.2860636867       -0.2817229652
 H         -7.3881779121        4.7458735934        0.3314799549
 H         -7.0925463093        0.2610034641        1.3681451215
 H         -5.3332716819       -1.3979023578        1.3962439884
 H         -4.4436975525       -3.0209015800       -0.0566147505
 H         -2.7550219440       -4.8141345478       -0.0700005239
 H          0.0061010285       -5.2136760654       -0.0657602883
 H          2.7648218483       -4.7976986937       -0.0496796156
 H          4.4426092459       -2.9946994017       -0.0098000135
 H          5.3232246802       -1.3240965829       -1.4147428500
 H          7.0721287342        0.3533862446       -1.3305768631
 H          6.0495665313        4.3301286639        0.8059969335
 H          7.7814745809        4.4770157885        1.0829160083
 H          6.8228784242        3.4282457028        2.1217121145
 H          8.3719788958        1.4928572408        1.5882081956
 H          8.7899749268        1.1279259240       -0.0839924526
 H          9.3273998871        2.6398378132        0.6438418461
 H          6.4976729978        3.6802455516       -1.6047939105
 H          8.2103754347        3.9420306076       -1.2607666534
 H          7.6755899993        2.4248900193       -1.9794532938
 H          4.7986910161        2.5702612466        1.5319012234
 H          3.0671765125        0.8809879449        1.4572646023
 H          1.3748673754       -0.0118300133        0.0051609207
 H         -1.3939583723       -0.0204301021        0.0172043110
 H         -3.0906649185        0.9075799119       -1.4066427521
 H         -4.8415586147        2.5874970136       -1.4242372562
  66
        -88.32890667
 C         -8.1511036329        2.5445607493       -0.8144840224
 C         -6.9470746666        2.7727382401        0.1029631882
 C         -7.4650258082        2.9537541895        1.5365993252
 C         -6.2319398150        4.0517820913       -0.3556812761
 C         -5.9581325751        1.6186947755        0.0709043323
 C         -6.1335434358        0.4872968861       -0.7162240845
 C         -5.1975029184       -0.5312343775       -0.7309982780
 C         -4.0428077520       -0.4572254286        0.0396327494
 C         -3.0224311700       -1.5140305107       -0.0007522203
 C         -3.3942049652       -2.8650744343       -0.0352810254
 C         -2.4602829707       -3.8810039259       -0.0781280231
 C         -1.1185085076       -3.5307427218       -0.0933517951
 N          0.0032557887       -4.3207122773       -0.1396058616
 C          1.1194578609       -3.5215325099       -0.1393787293
 C          2.4636011519       -3.8608996250       -0.1748586277
 C          3.3903494827       -2.8377505873       -0.1572739312
 C          3.0092247739       -1.4896177522       -0.1121735050
 C          4.0227426537       -0.4257147533       -0.0893272587
 C          5.1792644167       -0.5401825768        0.6772682102
 C          6.1043864905        0.4830205344        0.7193328458
 C          5.9238227267        1.6617970743       -0.0007702798
 C          6.9619304005        2.7681916687        0.0954023066
 C          8.3162692450        2.2314854956       -0.3878753859
 C          6.6023759022        3.9908862054       -0.7531421942
 C          7.0736627777        3.2193706337        1.5587777679
 C          4.7761973943        1.7647029539       -0.7771935175
 C          3.8441451219        0.7443857977       -0.8196999186
 C          1.6609117464       -1.1566982089       -0.0811462195
 C          0.7138155795       -2.1673746380       -0.0921804489
 C         -0.7223155368       -2.1733565847       -0.0607830856
 C         -1.6764696803       -1.1704594066       -0.0123535414
 C         -3.8691717246        0.6696095506        0.8398303457
 C         -4.8075727580        1.6802778511        0.8538285151
 H         -8.8211861603        3.3996914742       -0.7521181254
 H         -8.7074113602        1.6590664008       -0.5162574672
 H         -7.8379941954        2.4380337325       -1.8504261919
 H         -7.9551730152        2.0437990055        1.8764313056
 H         -6.6554096373        3.1812673062        2.2241255881
 H         -8.1842291994        3.7692499721        1.5752422792
 H         -5.4018615116        4.2977382480        0.3004671819
 H         -5.8427500040        3.9231220338       -1.3635917344
 H         -6.9256312691        4.8899114237       -0.3571838936
 H         -7.0058424637        0.3838534178       -1.3410368353
 H         -5.3561574750       -1.3860938101       -1.3727496433
 H         -4.4444049940       -3.1158739381       -0.0068929270
 H         -2.7675324229       -4.9164093914       -0.0967492279
 H          0.0067914820       -5.3260309150       -0.1690799320
 H          2.7780891804       -4.8934429415       -0.2166790273
 H          4.4422266939       -3.0792473590       -0.2000572570
 H          5.3426483580       -1.4307055922        1.2671709042
 H          6.9819677929        0.3562266834        1.3358314636
 H          8.6510093043        1.3967442982        0.2213419760
 H          9.0696786803        3.0147992136       -0.3370738272
 H          8.2390876503        1.8921417733       -1.4187562347
 H          6.5355218461        3.7298683528       -1.8066860386
 H          5.6584535827        4.4250561633       -0.4322306629
 H          7.3754655325        4.7487474022       -0.6428459863
 H          7.3912074724        2.4032993542        2.2014597522
 H          7.7981201298        4.0260747926        1.6485311026
 H          6.1102984616        3.5784459615        1.9151164299
 H          4.5883116586        2.6483938818       -1.3651262454
 H          2.9694734927        0.8527734537       -1.4449120320
 H          1.3536637935       -0.1233517040       -0.0259821610
 H         -1.3763939997       -0.1335859742       -0.0069124718
 H         -2.9948197536        0.7455824459        1.4701343623
 H         -4.6323130096        2.5346091463        1.4906848825
  66
        -88.32886844
 C         -7.4346836474        3.1902113094       -1.3897091663
 C         -7.2645639650        2.5960449008        0.0154128784
 C         -8.5530249410        1.8718703170        0.4313717517
 C         -7.0284980864        3.7477968058        0.9958974439
 C         -6.1203021748        1.5950850203       -0.0007953778
 C         -6.1943689637        0.4827077010       -0.8361064194
 C         -5.1946139462       -0.4673181385       -0.8651797554
 C         -4.0659324297       -0.3433276544       -0.0586679061
 C         -3.0188578201       -1.3753511330       -0.0592415657
 C         -3.3906679566       -2.7270807642       -0.0835633033
 C         -2.4575277264       -3.7422637213       -0.0681690833
 C         -1.1175040878       -3.3891967443       -0.0347829437
 N         -0.0026714792       -4.1872617127       -0.0144814556
 C          1.1169348402       -3.3962386935        0.0159056584
 C          2.4548008393       -3.7577699218        0.0450261031
 C          3.3940113176       -2.7484595324        0.0733176575
 C          3.0303259965       -1.3943475952        0.0659658764
 C          4.0834050461       -0.3685363041        0.0789030858
 C          5.2094517132       -0.5071714555        0.8831522439
 C          6.2192496660        0.4374293136        0.8710140779
 C          6.1501925897        1.5574005787        0.0517027449
 C          7.2513042654        2.6034330758       -0.0173791213
 C          6.6748614529        3.9719302798        0.3707736627
 C          8.4195669774        2.2944701777        0.9228532805
 C          7.7950713391        2.6568232707       -1.4523069911
 C          5.0136757704        1.6992483732       -0.7413543203
 C          4.0002630420        0.7624297234       -0.7287907916
 C          1.6874745183       -1.0393768379        0.0334820391
 C          0.7233295640       -2.0367668874        0.0131054398
 C         -0.7157018757       -2.0322717738       -0.0149708825
 C         -1.6738120690       -1.0289110907       -0.0225951817
 C         -3.9771688243        0.7760195831        0.7610710508
 C         -4.9853901814        1.7229016423        0.7905791196
 H         -8.2436208843        3.9177697608       -1.3936204458
 H         -7.6663286612        2.4196872488       -2.1195411579
 H         -6.5190531636        3.6892950742       -1.6999314567
 H         -8.8065642870        1.0814783961       -0.2693034662
 H         -8.4323598802        1.4274978112        1.4172021563
 H         -9.3830949660        2.5742568617        0.4678452626
 H         -6.9258252953        3.3789931235        2.0137160279
 H         -6.1383830530        4.3124327904        0.7290364791
 H         -7.8783234548        4.4269618675        0.9684423490
 H         -7.0507289309        0.3464607021       -1.4797229151
 H         -5.2815791545       -1.3111692978       -1.5345385473
 H         -4.4414406553       -2.9763750084       -0.0906199701
 H         -2.7615989994       -4.7786251876       -0.0778633994
 H         -0.0056953335       -5.1929286988       -0.0206647943
 H          2.7526084746       -4.7959827964        0.0415607961
 H          4.4432860138       -3.0040372974        0.0774584490
 H          5.2915345859       -1.3599191730        1.5418911346
 H          7.0684767300        0.2806398319        1.5160141460
 H          5.8804300812        4.2732890492       -0.3060149541
 H          7.4549341672        4.7297717180        0.3394308992
 H          6.2684250672        3.9356224392        1.3793736597
 H          8.0907244626        2.2664003657        1.9589840584
 H          8.8844555139        1.3446504861        0.6695015709
 H          9.1744104922        3.0728436975        0.8306407386
 H          7.0181833813        2.9337508239       -2.1592668125
 H          8.5976485104        3.3880389872       -1.5227159413
 H          8.1873038234        1.6839271817       -1.7413330635
 H          4.9135978312        2.5547315440       -1.3928701254
 H          3.1426250574        0.8951667634       -1.3726850827
 H          1.3974045890        0.0006276362        0.0438514934
 H         -1.3775031833        0.0093855994       -0.0200100405
 H         -3.1183470061        0.8962332074        1.4059604593
 H         -4.8714552775        2.5650134936        1.4538284894
  66
        -88.32822298
 C         -7.2540996447        3.2053104695       -1.4933439719
 C         -7.1259097395        2.6778554580       -0.0573053794
 C         -8.4537113688        2.0454290143        0.3828402153
 C         -6.8341673783        3.8664224784        0.8626443584
 C         -6.0354697391        1.6195441721       -0.0111335333
 C         -6.1500654940        0.4801498059       -0.8043948773
 C         -5.1865863075       -0.5072408067       -0.7956289141
 C         -4.0560933260       -0.3959707326        0.0098954539
 C         -3.0222467637       -1.4407848837        0.0157033676
 C         -3.3935146848       -2.7923982455       -0.0070214332
 C         -2.4593693305       -3.8077558507       -0.0104668260
 C         -1.1185137357       -3.4554586855        0.0016693179
 N          0.0000162928       -4.2496489089       -0.0125840165
 C          1.1180204397       -3.4545680042       -0.0030025098
 C          2.4592168613       -3.8056036616       -0.0199688852
 C          3.3927355140       -2.7899100731       -0.0060885280
 C          3.0210769710       -1.4381513381        0.0220817106
 C          4.0545731694       -0.3932229181        0.0300174128
 C          5.2232039116       -0.5361713526        0.7724168211
 C          6.1899425432        0.4501216634        0.7765896886
 C          6.0347608828        1.6257117735        0.0478574237
 C          7.1260673399        2.6848250807        0.0259768577
 C          6.5625360909        4.0744754723       -0.2949995555
 C          7.8442817771        2.7714459806        1.3791518258
 C          8.1373300150        2.2905256019       -1.0603887979
 C          4.8711686869        1.7583497299       -0.7028755188
 C          3.9009293059        0.7746529423       -0.7106698492
 C          1.6748687874       -1.0940950887        0.0362191161
 C          0.7184741997       -2.0976255894        0.0236279473
 C         -0.7195772148       -2.0981537492        0.0267199966
 C         -1.6767207208       -1.0953826789        0.0375530759
 C         -3.9369393817        0.7395786425        0.8034022109
 C         -4.9080803495        1.7244617755        0.7939952311
 H         -8.0213949930        3.9749855038       -1.5430061225
 H         -7.5227966528        2.4120260306       -2.1848212497
 H         -6.3103452421        3.6367853922       -1.8200649343
 H         -8.7394565699        1.2285756839       -0.2736942813
 H         -8.3659894461        1.6548496543        1.3944312417
 H         -9.2472251975        2.7895330821        0.3671838535
 H         -6.7631269571        3.5498959829        1.9004453920
 H         -5.9104285531        4.3638445906        0.5766096213
 H         -7.6432516543        4.5900420803        0.7867937667
 H         -7.0060786482        0.3561607157       -1.4512426136
 H         -5.2997543761       -1.3676857980       -1.4394805713
 H         -4.4441731294       -3.0425835080       -0.0022777344
 H         -2.7638223813       -4.8440130189       -0.0228181461
 H          0.0015456392       -5.2551647328       -0.0331655823
 H          2.7644040512       -4.8413477337       -0.0473850578
 H          4.4428606791       -3.0396083860       -0.0400813223
 H          5.3703609106       -1.4239106960        1.3706254531
 H          7.0790376244        0.2885555402        1.3652610346
 H          6.2056009082        4.1344331745       -1.3194689145
 H          7.3422340895        4.8237437183       -0.1753328901
 H          5.7444915326        4.3199281218        0.3785675359
 H          7.1243650639        2.8960023241        2.1850778351
 H          8.4386519214        1.8837457762        1.5756329241
 H          8.5187057045        3.6251123040        1.3850614099
 H          7.6504434734        2.2426842143       -2.0321394336
 H          8.9427837485        3.0201894123       -1.1104849298
 H          8.5654428919        1.3138536792       -0.8461215013
 H          4.7052386700        2.6395917498       -1.3014694775
 H          3.0167540124        0.9083157587       -1.3172382170
 H          1.3757245394       -0.0576046650        0.0751227031
 H         -1.3794938233       -0.0573732078        0.0401808082
 H         -3.0816363177        0.8460043064        1.4552887852
 H         -4.7675113252        2.5817445384        1.4319633025
