  66
  -87.8732816624000       0.225301069240008      !
 C         -8.4307492093        2.0312333534        0.5368359739
 C         -7.1236804696        2.6782629437        0.0573907470
 C         -6.8078321975        3.8566026881        0.9824552737
 C         -7.3056275920        3.2234838133       -1.3660291324
 C         -6.0262646598        1.6262811331        0.0519169256
 C         -6.1671171643        0.4885855567       -0.7395827264
 C         -5.2036072455       -0.4988951074       -0.7656449756
 C         -4.0463072479       -0.3880996078        0.0005277214
 C         -3.0163101409       -1.4365531703       -0.0119586973
 C         -3.3911668078       -2.7873661426       -0.0036596731
 C         -2.4596495316       -3.8053485171        0.0072325822
 C         -1.1175786978       -3.4571047938        0.0032354663
 N         -0.0001090432       -4.2532258636        0.0181322614
 C          1.1195389167       -3.4599974739        0.0118969864
 C          2.4604574615       -3.8121821904        0.0321213889
 C          3.3949037546       -2.7967442886        0.0258101619
 C          3.0231804283       -1.4459295643       -0.0121033537
 C          4.0562529795       -0.4001346617       -0.0290160134
 C          5.1704727957       -0.4729415903        0.8022833538
 C          6.1303868369        0.5182580210        0.7865425412
 C          6.0317059995        1.6170726626       -0.0639693243
 C          7.1137289638        2.6848210625       -0.0394349410
 C          6.8829838576        3.7838592341       -1.0800459441
 C          7.1313991070        3.3349882604        1.3511652253
 C          8.4750395330        2.0364938049       -0.3270332249
 C          4.9199157610        1.6827401584       -0.8948005194
 C          3.9491026738        0.6980126101       -0.8749556420
 C          1.6783205142       -1.0997352840       -0.0352363415
 C          0.7215814258       -2.1025916563       -0.0160853082
 C         -0.7160405608       -2.1006595762       -0.0151735707
 C         -1.6697646162       -1.0949176992       -0.0192551274
 C         -3.8972981920        0.7498782356        0.7858961321
 C         -4.8681283088        1.7342024448        0.8118595225
 H         -8.7389027757        1.2259108273       -0.1240490694
 H         -9.2273209758        2.7717880552        0.5666967133
 H         -8.3018811338        1.6213504953        1.5365840096
 H         -6.6946561104        3.5255522642        2.0120693488
 H         -5.8998954361        4.3666460508        0.6693239448
 H         -7.6254583449        4.5739114310        0.9480110523
 H         -6.3768330529        3.6658722329       -1.7202534473
 H         -7.5935173226        2.4367760942       -2.0575647414
 H         -8.0794791612        3.9882065884       -1.3779707185
 H         -7.0465595119        0.3637890687       -1.3537671923
 H         -5.3405894065       -1.3600105990       -1.4039396461
 H         -4.4422793145       -3.0345692756        0.0196574900
 H         -2.7678084452       -4.8404371222        0.0245462280
 H         -0.0023509163       -5.2587551141        0.0378142806
 H          2.7655142461       -4.8481579816        0.0504964326
 H          4.4459440540       -3.0456724670        0.0277837067
 H          5.2724230746       -1.3044581692        1.4848907910
 H          6.9721137751        0.4282737344        1.4570591324
 H          6.8665839465        3.3705872874       -2.0858233891
 H          7.6923090730        4.5093436441       -1.0267754859
 H          5.9494220819        4.3095298924       -0.8946667714
 H          6.1656477151        3.7879160087        1.5659285231
 H          7.3432181323        2.6027836744        2.1253682807
 H          7.8940515831        4.1097147460        1.3941034818
 H          8.4579337493        1.5406137946       -1.2952825572
 H          9.2549849328        2.7949084733       -0.3408783965
 H          8.7324312424        1.3001150060        0.4286740100
 H          4.7921365822        2.5079105387       -1.5764881989
 H          3.1032978041        0.7729293637       -1.5434448225
 H          1.3820584241       -0.0615874385       -0.0458752768
 H         -1.3688863511       -0.0585397117       -0.0467017976
 H         -3.0181812733        0.8572391797        1.4050074876
 H         -4.7051420621        2.5909721551        1.4453412698
  66
  -87.8729541525000       0.159312599478254      !
 C         -8.1611723556        2.5094402950       -0.8225808485
 C         -6.9488330445        2.7692188176        0.0753103571
 C         -7.4534987659        2.9978453486        1.5068812255
 C         -6.2394366119        4.0327056693       -0.4327087870
 C         -5.9589727392        1.6155203347        0.0726768543
 C         -6.1405275259        0.4582056900       -0.6743586008
 C         -5.2035524981       -0.5595180773       -0.6637664903
 C         -4.0417544667       -0.4587871185        0.0930353598
 C         -3.0206457019       -1.5155569841        0.0785219862
 C         -3.3912480129       -2.8672878558        0.0928486802
 C         -2.4566578380       -3.8833551561        0.0753176990
 C         -1.1154697092       -3.5327570101        0.0357105341
 N          0.0066750147       -4.3229597514        0.0054232455
 C          1.1219544422       -3.5233532531       -0.0316801856
 C          2.4660760839       -3.8626726959       -0.0684140513
 C          3.3918280127       -2.8387882092       -0.0939006683
 C          3.0096679013       -1.4901985290       -0.0904718229
 C          4.0221902876       -0.4253388649       -0.1128849346
 C          5.1859832806       -0.5131124582        0.6461906544
 C          6.1103388087        0.5116464077        0.6451826112
 C          5.9217315692        1.6654495101       -0.1123341380
 C          6.9594845959        2.7752569760       -0.0631228423
 C          8.3098129885        2.2236885283       -0.5408571090
 C          6.5906405996        3.9685030871       -0.9487903656
 C          7.0844577209        3.2753829186        1.3831724536
 C          4.7667549937        1.7413447651       -0.8809273906
 C          3.8354622695        0.7194500017       -0.8803923927
 C          1.6613419622       -1.1574757121       -0.0579322459
 C          0.7152909544       -2.1686906241       -0.0261259542
 C         -0.7204746601       -2.1747342612        0.0189820915
 C         -1.6752293982       -1.1715203274        0.0427201040
 C         -3.8618467318        0.6944044371        0.8533018765
 C         -4.8011808482        1.7042417893        0.8422202803
 H         -8.8315755518        3.3656601125       -0.7826329594
 H         -8.7136857694        1.6340208525       -0.4895833497
 H         -7.8576867745        2.3684486506       -1.8572689958
 H         -7.9394372021        2.0994267754        1.8816563580
 H         -6.6377126356        3.2489359245        2.1787290036
 H         -8.1731999760        3.8136181005        1.5249132154
 H         -5.4035040610        4.3011917191        0.2069686561
 H         -5.8595866356        3.8705935400       -1.4393563243
 H         -6.9340287308        4.8697717105       -0.4557977504
 H         -7.0185407201        0.3331708036       -1.2871034309
 H         -5.3672895230       -1.4355579006       -1.2749498893
 H         -4.4408600203       -3.1178113871        0.1395281172
 H         -2.7629348796       -4.9190413237        0.0943437083
 H          0.0110343979       -5.3286981779        0.0096657196
 H          2.7812877942       -4.8957925764       -0.0785262427
 H          4.4435209158       -3.0807652880       -0.1384641303
 H          5.3558734419       -1.3832077283        1.2640759963
 H          6.9938080339        0.4062988279        1.2572938627
 H          8.6511718904        1.4101253745        0.0928452366
 H          9.0628082018        3.0088526781       -0.5234667954
 H          8.2233273733        1.8498772218       -1.5589984697
 H          6.5141835302        3.6722209233       -1.9923063512
 H          5.6492981878        4.4124634730       -0.6337494984
 H          7.3639015898        4.7302411722       -0.8712729204
 H          7.4089157877        2.4815889125        2.0498546403
 H          7.8088422569        4.0852090806        1.4389787924
 H          6.1240890179        3.6454648731        1.7363217701
 H          4.5723901082        2.6046588270       -1.4963839042
 H          2.9548409265        0.8061115835       -1.5006216650
 H          1.3534944087       -0.1230996115       -0.0345796563
 H         -1.3762511634       -0.1348149648        0.0105402910
 H         -2.9816990549        0.7921701338        1.4724370304
 H         -4.6208847544        2.5796024219        1.4483729471
  66
  -87.8729155361000       0.152933720972327      !
 C         -7.6392836429        2.7554472853       -1.4726335954
 C         -7.0862163919        2.6969093283       -0.0416423132
 C         -8.2603605885        2.4755187085        0.9153990245
 C         -6.4255998334        4.0361278072        0.3146674438
 C         -6.0455060323        1.5919057221        0.0403925931
 C         -4.9087246328        1.6596670565       -0.7618970661
 C         -3.9372568591        0.6812354626       -0.7230693555
 C         -4.0634496341       -0.4188995683        0.1215530662
 C         -3.0284665224       -1.4618410926        0.1562584502
 C         -3.3943806268       -2.8135107607        0.2192645865
 C         -2.4563679467       -3.8256512227        0.2310201664
 C         -1.1170664396       -3.4699882323        0.1847487742
 N          0.0051245740       -4.2595171144        0.1767493297
 C          1.1189074348       -3.4603932530        0.1180200194
 C          2.4614368115       -3.8042938777        0.0813822223
 C          3.3883154712       -2.7836789466        0.0252228043
 C          3.0094835596       -1.4339657038        0.0017252351
 C          4.0367357553       -0.3845951173       -0.0580121286
 C          3.8621199733        0.7496800107       -0.8435493412
 C          4.8297414223        1.7360741397       -0.9028974578
 C          6.0115526175        1.6331336696       -0.1797008113
 C          7.1067159660        2.6867225998       -0.2215573946
 C          6.7444565473        3.8806925630       -1.1085151011
 C          7.3603989975        3.2089229608        1.1995149465
 C          8.3876184827        2.0478781460       -0.7762468377
 C          6.1807928149        0.4968069532        0.6081483489
 C          5.2191977402       -0.4904699699        0.6702546896
 C          1.6619223743       -1.0970753606        0.0325364578
 C          0.7127743135       -2.1054874764        0.0913361018
 C         -0.7243449124       -2.1118349563        0.1314449531
 C         -1.6844613581       -1.1125576044        0.1140298751
 C         -5.1974881197       -0.4926737688        0.9223840841
 C         -6.1659507332        0.4942845717        0.8836607772
 H         -8.3938042328        3.5351541332       -1.5520824382
 H         -8.0958282860        1.8040969967       -1.7377399496
 H         -6.8532429224        2.9672253311       -2.1917105029
 H         -8.7834928415        1.5504728069        0.6851532242
 H         -7.9220545723        2.4470596543        1.9484037822
 H         -8.9685880029        3.2955613986        0.8159396972
 H         -6.0071193379        3.9929144611        1.3181044339
 H         -5.6248155609        4.2792684436       -0.3778413969
 H         -7.1605115784        4.8376939559        0.2806010316
 H         -4.7729682917        2.4912602095       -1.4373053337
 H         -3.0767029863        0.7581270234       -1.3719624747
 H         -4.4440471184       -3.0673609634        0.2346962707
 H         -2.7580308112       -4.8621116448        0.2693584234
 H          0.0098994046       -5.2647708049        0.2077289228
 H          2.7739738721       -4.8381935356        0.0914811758
 H          4.4387318230       -3.0296183319       -0.0250113614
 H          2.9641167229        0.8543234515       -1.4354211789
 H          4.6442576816        2.5914261748       -1.5322428266
 H          6.5877604897        3.5698711327       -2.1385655168
 H          7.5592355411        4.6018485330       -1.0959795844
 H          5.8486560455        4.3789337456       -0.7454910763
 H          6.4494759559        3.6402839293        1.6089429229
 H          7.6880468432        2.4132350915        1.8620867144
 H          8.1303138738        3.9775961876        1.1841872392
 H          8.2101493262        1.6593615274       -1.7768916460
 H          9.1841253303        2.7873497073       -0.8284836844
 H          8.7233197222        1.2282380711       -0.1473957119
 H          7.0816189278        0.3728130449        1.1905495121
 H          5.3785601371       -1.3484989877        1.3072849219
 H          1.3565840036       -0.0616172518        0.0341854266
 H         -1.3901506716       -0.0742665058        0.0861254383
 H         -5.3165882694       -1.3242007513        1.6022507315
 H         -7.0226317168        0.3904146952        1.5297100968
  66
  -87.8728891237000       0.148718486401415      !
 C         -7.7209296676        2.6562778466       -1.6386648450
 C         -7.2079186638        2.6252423223       -0.1919372968
 C         -8.3997988358        2.3535822699        0.7299610296
 C         -6.6178132554        3.9927882882        0.1790549721
 C         -6.1236704974        1.5658366678       -0.0762777196
 C         -6.2187285887        0.4736623148        0.7772277091
 C         -5.2191317933       -0.4799367386        0.8380121511
 C         -4.0781326833       -0.3791405683        0.0492228750
 C         -3.0298634816       -1.4087383253        0.0958776323
 C         -3.3950595275       -2.7608507597        0.1628451477
 C         -2.4567375469       -3.7709900060        0.1986231433
 C         -1.1179315707       -3.4125433659        0.1725074976
 N          0.0019790639       -4.2036088852        0.2000385129
 C          1.1175640873       -3.4071359354        0.1565203536
 C          2.4583424913       -3.7591057690        0.1625960631
 C          3.3910842770       -2.7446714058        0.1075002176
 C          3.0183622293       -1.3940539133        0.0531554252
 C          4.0608568868       -0.3585892103        0.0080804679
 C          5.2036812405       -0.5238651126       -0.7706815327
 C          6.1925842158        0.4377821831       -0.7912353361
 C          6.0924692033        1.6043450068       -0.0364655143
 C          7.2211903986        2.6219558882       -0.0775101538
 C          6.9525464933        3.8384349403        0.8122274181
 C          8.5140891750        1.9510151076        0.4079311407
 C          7.4027576919        3.1147487464       -1.5199968993
 C          4.9457252576        1.7703347996        0.7302914138
 C          3.9491738520        0.8112090684        0.7512798453
 C          1.6725714065       -1.0485973533        0.0521750902
 C          0.7155421843       -2.0514421168        0.0999912587
 C         -0.7234072316       -2.0551001037        0.1071637967
 C         -1.6859294652       -1.0572307156        0.0654465798
 C         -3.9711849956        0.7223237164       -0.7958552418
 C         -4.9737707151        1.6687018889       -0.8559315100
 H         -8.5122943044        3.3960492387       -1.7400467762
 H         -8.1199527277        1.6827424591       -1.9161333295
 H         -6.9265916972        2.9094957566       -2.3349758430
 H         -8.8707348036        1.4032193686        0.4899146054
 H         -8.0939558518        2.3475203709        1.7734482132
 H         -9.1426648637        3.1383402576        0.6021350920
 H         -6.2350083157        3.9724713025        1.1973263910
 H         -5.8030953908        4.2655772990       -0.4855980113
 H         -7.3842358768        4.7622098966        0.1130725527
 H         -7.0801220112        0.3469334150        1.4126806231
 H         -5.3209190815       -1.3085394126        1.5241259278
 H         -4.4444823905       -3.0158844268        0.1628401932
 H         -2.7562631796       -4.8078710416        0.2415093399
 H          0.0047286132       -5.2083234858        0.2452016737
 H          2.7635467360       -4.7940006270        0.2121039819
 H          4.4418946085       -2.9929710793        0.1295911436
 H          5.3102961923       -1.4097118985       -1.3801872344
 H          7.0601308086        0.2686169310       -1.4116371238
 H          6.0571183276        4.3663749476        0.4929380301
 H          7.7914313132        4.5283366683        0.7453114889
 H          6.8419062195        3.5440242906        1.8532166627
 H          8.3859315991        1.5792167141        1.4224220296
 H          8.7890583568        1.1149422941       -0.2286650777
 H          9.3331321629        2.6671975520        0.4029465299
 H          6.4837752400        3.5735952765       -1.8786699119
 H          8.1994946323        3.8542649810       -1.5659922975
 H          7.6581404044        2.2973339858       -2.1881843819
 H          4.8124487067        2.6537722281        1.3335029466
 H          3.0800854996        0.9642303082        1.3750144970
 H          1.3748574039       -0.0124347395       -0.0062753894
 H         -1.3937546291       -0.0184214292        0.0306921158
 H         -3.1028539257        0.8241891503       -1.4309313496
 H         -4.8535801128        2.5012565233       -1.5332182720
  66
  -87.8726904302000       0.120517952966692      !
 C         -8.4544817274        2.0554391453        0.2168514573
 C         -7.0968886116        2.6947408375       -0.1071244191
 C         -6.8641019261        3.8405010858        0.8812490800
 C         -7.1249053055        3.2822414287       -1.5253968222
 C         -6.0125808030        1.6313434318       -0.0381673229
 C         -6.1071026670        0.5001683225       -0.8457114064
 C         -5.1483011594       -0.4915827043       -0.8164345923
 C         -4.0398050754       -0.3884732487        0.0196541811
 C         -3.0113931725       -1.4384760052        0.0509454608
 C         -3.3906785364       -2.7878650186        0.0525246854
 C         -2.4624026228       -3.8083046799        0.0841662008
 C         -1.1196687702       -3.4632158370        0.1032581802
 N         -0.0050986586       -4.2632109284        0.1215583249
 C          1.1171532653       -3.4738525739        0.1211677680
 C          2.4567946228       -3.8312244416        0.1247825605
 C          3.3949304227       -2.8196665856        0.1002993958
 C          3.0286905613       -1.4666679414        0.0814542715
 C          4.0648511291       -0.4249270100        0.0394357961
 C          5.1849780451       -0.5577021720       -0.7735894319
 C          6.1508922581        0.4305983424       -0.8281069219
 C          6.0421223065        1.5892683458       -0.0691794442
 C          7.0767689196        2.7027152875       -0.1002203915
 C          6.3969070789        4.0056129183       -0.5447118691
 C          7.6658558393        2.8779847087        1.3064860222
 C          8.2276798378        2.4127045868       -1.0673306276
 C          4.9219702200        1.7140214662        0.7495959185
 C          3.9521938046        0.7340380723        0.8028889460
 C          1.6846848826       -1.1154495277        0.0908038914
 C          0.7241044632       -2.1147768039        0.1052764282
 C         -0.7136225093       -2.1078690659        0.0956407847
 C         -1.6646702192       -1.0994037122        0.0769399784
 C         -3.9358453073        0.7427984387        0.8210399397
 C         -4.9050868990        1.7291497277        0.7951029011
 H         -9.2386611880        2.8093197668        0.1934218120
 H         -8.4326111843        1.6101865796        1.2094466732
 H         -8.7086860984        1.2793153713       -0.4990973988
 H         -6.8425059516        3.4740620861        1.9048868806
 H         -5.9322967154        4.3585918777        0.6674299742
 H         -7.6751829841        4.5611883063        0.7983686142
 H         -6.1601588858        3.7231616559       -1.7678902704
 H         -7.3442423328        2.5170470921       -2.2647544692
 H         -7.8866060643        4.0557270608       -1.5967474251
 H         -6.9446371615        0.3845980345       -1.5175203337
 H         -5.2473330396       -1.3489296865       -1.4667842027
 H         -4.4430634926       -3.0310111935        0.0494876980
 H         -2.7734026922       -4.8426536784        0.0936978710
 H         -0.0100480296       -5.2687539303        0.1333948948
 H          2.7579871320       -4.8683235432        0.1449369931
 H          4.4446800853       -3.0733102880        0.1147878263
 H          5.2924857305       -1.4369972422       -1.3924575559
 H          6.9937986241        0.2805938479       -1.4829706147
 H          5.9456664801        3.8772651481       -1.5262274074
 H          7.1279982824        4.8091025816       -0.6025670020
 H          5.6186688192        4.3033475917        0.1517536827
 H          6.8956753150        3.1347322454        2.0279292005
 H          8.1429609447        1.9557746577        1.6309727632
 H          8.4107307496        3.6708470512        1.3049564202
 H          7.8631402365        2.3038860644       -2.0860317055
 H          8.9335585538        3.2406964613       -1.0491612353
 H          8.7618737749        1.5101299685       -0.7804556722
 H          4.7971392457        2.5937103483        1.3634842789
 H          3.1029238260        0.8586771668        1.4594330668
 H          1.3911234109       -0.0770070478        0.0591196369
 H         -1.3620108180       -0.0631978243        0.0591284844
 H         -3.0937640903        0.8438650807        1.4908480207
 H         -4.7795806989        2.5813775107        1.4431767971
  66
  -87.8726338455000       0.113513422685097      !
 C         -7.4460737141        3.1280006884       -1.4679436773
 C         -7.2645303146        2.5958831568       -0.0395756174
 C         -8.5494965016        1.8909072606        0.4180849371
 C         -7.0206948568        3.7894036961        0.8876042597
 C         -6.1203103470        1.5949131300       -0.0211879694
 C         -6.2009838988        0.4470484271       -0.8063708320
 C         -5.2013763796       -0.5035667695       -0.8018981034
 C         -4.0662303262       -0.3446419540       -0.0107323121
 C         -3.0190641027       -1.3759391811        0.0254195543
 C         -3.3908877784       -2.7273529092        0.0633063614
 C         -2.4575253128       -3.7411007496        0.1155933718
 C         -1.1173202816       -3.3872155063        0.1226634149
 N         -0.0022591603       -4.1838800390        0.1688792919
 C          1.1174561603       -3.3925398544        0.1555594959
 C          2.4555594751       -3.7527538686        0.1896717207
 C          3.3948403218       -2.7433863293        0.1661587834
 C          3.0309363175       -1.3908119502        0.1024671481
 C          4.0839558598       -0.3656574685        0.0619727855
 C          5.2164820607       -0.4692049258        0.8623975717
 C          6.2260295610        0.4737289233        0.8007578589
 C          6.1502126866        1.5567715966       -0.0662173104
 C          7.2505979705        2.5985260780       -0.1899227638
 C          6.6771375027        3.9828359758        0.1425869292
 C          8.4264591870        2.3307580948        0.7534666111
 C          7.7827455180        2.5889185862       -1.6301580983
 C          5.0073067077        1.6640210012       -0.8555171740
 C          3.9941470034        0.7288812545       -0.7937640321
 C          1.6878213376       -1.0372982351        0.0653223676
 C          0.7236692797       -2.0344046661        0.0964219504
 C         -0.7155426072       -2.0308156828        0.0798016565
 C         -1.6738099408       -1.0285329233        0.0359961762
 C         -3.9709871499        0.8095008765        0.7584700263
 C         -4.9790568220        1.7569962666        0.7546376329
 H         -8.2551080994        3.8548742994       -1.4971698409
 H         -7.6835112238        2.3263152917       -2.1614459701
 H         -6.5330429829        3.6128156913       -1.8071058118
 H         -8.8085895142        1.0706545525       -0.2452427762
 H         -8.4208131531        1.4900941823        1.4214184008
 H         -9.3793334715        2.5944060018        0.4304763040
 H         -6.9097542597        3.4654915523        1.9197310131
 H         -6.1328366445        4.3416122755        0.5890966014
 H         -7.8708001689        4.4669088482        0.8373066712
 H         -7.0624994611        0.2829486380       -1.4364660842
 H         -5.2936408829       -1.3758942833       -1.4329455570
 H         -4.4416516750       -2.9764779983        0.0756596846
 H         -2.7615340003       -4.7768237190        0.1537385719
 H         -0.0052057692       -5.1888527371        0.2067561712
 H          2.7534606086       -4.7901906911        0.2292586255
 H          4.4441465164       -2.9987764574        0.1730086566
 H          5.3039930151       -1.2923132951        1.5571548237
 H          7.0804606716        0.3451354157        1.4451225250
 H          5.8772251529        4.2544559410       -0.5403068922
 H          7.4568356881        4.7384010392        0.0717940736
 H          6.2788690314        3.9908130770        1.1550598125
 H          8.1060034756        2.3481530010        1.7924554739
 H          8.8894053710        1.3706513725        0.5381951563
 H          9.1804345398        3.1041763436        0.6211692154
 H          7.0001352970        2.8348058408       -2.3422652937
 H          8.5846351143        3.3161679766       -1.7389944885
 H          8.1727526704        1.6042122597       -1.8794712825
 H          4.9018592953        2.4901825297       -1.5430328943
 H          3.1313172223        0.8334957096       -1.4359030181
 H          1.3977132203        0.0022289799        0.0324918176
 H         -1.3776210778        0.0088139324       -0.0092731696
 H         -3.1069975046        0.9576378345        1.3905190074
 H         -4.8598726515        2.6273125269        1.3794400013
  66
  -87.8721791385000       7.015818579938371E-002 !
 C         -6.4211410983        4.0323936597       -0.3009831709
 C         -7.0746261608        2.7092216864        0.1223540348
 C         -8.2671548342        2.4493031472       -0.8018939781
 C         -7.6007296934        2.8264186665        1.5598617914
 C         -6.0348127958        1.6017363119        0.0638363640
 C         -6.1672709516        0.4775345986       -0.7418197391
 C         -5.1986521427       -0.5094362439       -0.7635701329
 C         -4.0525145790       -0.4104830405        0.0176531197
 C         -3.0202251673       -1.4565002708       -0.0072871845
 C         -3.3938095832       -2.8074799204       -0.0349217949
 C         -2.4615205888       -3.8243821077       -0.0568212588
 C         -1.1198987928       -3.4746188493       -0.0575966767
 N         -0.0023211568       -4.2701083715       -0.0817656678
 C          1.1169004512       -3.4764361130       -0.0737086190
 C          2.4578677001       -3.8283686020       -0.0895265397
 C          3.3921892917       -2.8131901463       -0.0714606506
 C          3.0211430797       -1.4614920303       -0.0443563577
 C          4.0543965200       -0.4162563686       -0.0307545486
 C          5.2057854043       -0.5478674018        0.7376851234
 C          6.1744881791        0.4392654099        0.7507124179
 C          6.0365929884        1.5967546548       -0.0053579550
 C          7.0750296585        2.7068584699       -0.0230539412
 C          7.5767858595        2.9024264946       -1.4609205812
 C          6.4272666007        4.0042193531        0.4817373611
 C          8.2836672224        2.3995264160        0.8652320743
 C          4.8816485108        1.7237645712       -0.7739426571
 C          3.9105577122        0.7439090374       -0.7877001183
 C          1.6754491718       -1.1161722809       -0.0326840278
 C          0.7186868263       -2.1191293622       -0.0442437961
 C         -0.7191389690       -2.1179594799       -0.0314167142
 C         -1.6739805576       -1.1134426421       -0.0029230563
 C         -3.9139938277        0.7163228909        0.8242101795
 C         -4.8857335084        1.6955052422        0.8459099886
 H         -7.1558929097        4.8348024413       -0.2876090840
 H         -6.0202070436        3.9473416869       -1.3090355965
 H         -5.6084980224        4.3034850381        0.3668502216
 H         -8.9758898510        3.2708018176       -0.7186545386
 H         -7.9497833429        2.3831242145       -1.8398701833
 H         -8.7822644779        1.5321364480       -0.5263882906
 H         -8.0465923964        1.8850619741        1.8742126821
 H         -6.8026847053        3.0734321832        2.2541735044
 H         -8.3583251638        3.6050211366        1.6197245792
 H         -7.0327076718        0.3531296702       -1.3723413610
 H         -5.3268611102       -1.3614861647       -1.4157616257
 H         -4.4446734920       -3.0560447482       -0.0169610802
 H         -2.7686233765       -4.8598451418       -0.0704475972
 H         -0.0028950098       -5.2756360650       -0.1027192090
 H          2.7629496189       -4.8641556299       -0.1180866986
 H          4.4425014556       -3.0630916214       -0.1008106900
 H          5.3386901583       -1.4266003452        1.3523514145
 H          7.0445550242        0.2882082248        1.3687637377
 H          8.0142943226        1.9789527863       -1.8350351591
 H          8.3356408204        3.6815088456       -1.4905332628
 H          6.7679756328        3.1898891664       -2.1267407054
 H          5.5954163265        4.3025107015       -0.1502451760
 H          6.0537956753        3.8676241204        1.4947386329
 H          7.1575438186        4.8106621153        0.4880801785
 H          8.7917367945        1.4965845324        0.5346975340
 H          8.9923422705        3.2234853278        0.8104802500
 H          7.9853969431        2.2818160047        1.9044147231
 H          4.7307730040        2.6042904299       -1.3807521271
 H          3.0359973221        0.8688616870       -1.4098572919
 H          1.3775974496       -0.0792464182        0.0068269957
 H         -1.3743100246       -0.0762405781        0.0001000163
 H         -3.0433717260        0.8148269376        1.4567471776
 H         -4.7401210122        2.5488954154        1.4916506297
  66
  -87.8702940595000       9.544562456823301E-003 !
 C         -7.2687920261        3.1595245012       -1.5192499751
 C         -7.1253405739        2.6791137575       -0.0682243109
 C         -8.4485216105        2.0622305794        0.4065341613
 C         -6.8233926717        3.8968714388        0.8092757641
 C         -6.0347733069        1.6221753344        0.0007555253
 C         -6.1582101477        0.4575836633       -0.7536348608
 C         -5.1949775794       -0.5296109449       -0.7229912352
 C         -4.0558673649       -0.3928452905        0.0663046491
 C         -3.0223198310       -1.4375743235        0.0951108899
 C         -3.3942007092       -2.7889721346        0.1204788597
 C         -2.4604394922       -3.8044984507        0.1401453550
 C         -1.1194291997       -3.4528497573        0.1264013897
 N         -0.0013461391       -4.2477968342        0.1260731931
 C          1.1169260067       -3.4535410822        0.0977195143
 C          2.4577614595       -3.8058003219        0.0778336309
 C          3.3916686337       -2.7907912255        0.0485568622
 C          3.0207244368       -1.4385957563        0.0365932365
 C          4.0545479923       -0.3946252005       -0.0006506236
 C          5.2310424651       -0.5140262881        0.7334427518
 C          6.1980549640        0.4712599915        0.6950672109
 C          6.0353960872        1.6225512088       -0.0699261167
 C          7.1267104724        2.6796895156       -0.1380513907
 C          6.5601661826        4.0584894774       -0.4981343954
 C          7.8594399020        2.8099476022        1.2037973588
 C          8.1261347014        2.2495151884       -1.2217560891
 C          4.8638474005        1.7313722380       -0.8120657499
 C          3.8932962139        0.7485649049       -0.7773567000
 C          1.6748451159       -1.0934012906        0.0539332748
 C          0.7180806837       -2.0961971026        0.0843469487
 C         -0.7198546975       -2.0957052089        0.1028755237
 C         -1.6765370395       -1.0925030353        0.0912496313
 C         -3.9278710728        0.7679085296        0.8210168706
 C         -4.8987725881        1.7525809784        0.7898965781
 H         -8.0363541270        3.9276600025       -1.5857662289
 H         -7.5451282370        2.3442772739       -2.1815560718
 H         -6.3284760500        3.5795086040       -1.8699760605
 H         -8.7415365952        1.2245777795       -0.2198979852
 H         -8.3500543162        1.7048024667        1.4293308728
 H         -9.2419428838        2.8059347929        0.3751190769
 H         -6.7413030670        3.6143224257        1.8560298427
 H         -5.9026351529        4.3841076444        0.4972749351
 H         -7.6330358211        4.6181484320        0.7185372610
 H         -7.0211560566        0.3131066017       -1.3868761620
 H         -5.3153017813       -1.4105287425       -1.3371764447
 H         -4.4448198386       -3.0381980845        0.1446492211
 H         -2.7653068827       -4.8404122683        0.1648753097
 H         -0.0003282934       -5.2534496763        0.1382935443
 H          2.7623375015       -4.8420823069        0.0809533289
 H          4.4412960495       -3.0421365047        0.0114696875
 H          5.3843586128       -1.3818727103        1.3586840156
 H          7.0933736807        0.3284149497        1.2791282683
 H          6.1922673824        4.0852238798       -1.5201279682
 H          7.3413206490        4.8107642516       -0.4113452950
 H          5.7494729898        4.3263067596        0.1757995626
 H          7.1482553478        2.9611879542        2.0129042583
 H          8.4556293451        1.9287496832        1.4227510497
 H          8.5341349121        3.6629212432        1.1746192890
 H          7.6288270424        2.1703106832       -2.1861514124
 H          8.9312147130        2.9766416347       -1.3042662180
 H          8.5562417775        1.2800793664       -0.9803410018
 H          4.6917533038        2.5927242220       -1.4372788153
 H          3.0026967508        0.8629345294       -1.3784466003
 H          1.3764352433       -0.0560024791        0.0622050618
 H         -1.3789992985       -0.0551504258        0.0568221443
 H         -3.0655861745        0.8949963430        1.4598746803
 H         -4.7511131073        2.6301287923        1.3980110067
