92
 energy: -151.033924409462 gnorm: 0.000079337090 xtb: 6.7.1 (edcfbbe)
N           10.33637604382644        1.91807472978932        0.18181146747394
C            9.31378449475302        1.38972531676092        0.12734511468139
C            8.08641427205846        0.71455042021643        0.05916189415038
N            6.94314942190110        1.40629026733759        0.11982966936475
C            5.78812338454703        0.71532185633391        0.05580144299089
C            4.55335920452435        1.41915957532879        0.10900686188231
C            4.49130788652594        2.82187575061489        0.21274474303638
C            3.27534757924967        3.45035043429110        0.24458305681868
C            2.09752748785692        2.67208268274208        0.16410127092889
C            0.75694609587773        3.25279492600997        0.15686346003539
C            0.47378860085222        4.52060775898634        0.67234071898343
C           -0.80922906355308        5.02101690070652        0.65104452015770
C           -1.85848969679347        4.27344913417487        0.10281468467248
N           -3.15205507032753        4.78095980832630        0.07558013853940
C           -4.25352270711638        3.92351438360319        0.18588700765462
C           -5.41226931593510        4.17174777904902       -0.55307882259126
C           -6.50165241504055        3.33061894609109       -0.43704017609237
C           -6.45292509796867        2.23240149027629        0.40785204346101
C           -5.30306049299365        1.97873310828414        1.14001949825721
C           -4.21015300943954        2.81713524606689        1.03737933970407
C           -3.36716979905683        6.15751443954397       -0.06871073828514
C           -2.56640060189509        6.91245970934829       -0.92814875409453
C           -2.78538295573604        8.26938121426193       -1.06497331219539
C           -3.80269040415282        8.89108960509187       -0.35689458188014
C           -4.60343028912490        8.14430266066582        0.49388098202504
C           -4.39096748500391        6.78752861874363        0.64155486928773
C           -1.57837771153512        3.00129502655555       -0.41347014691696
C           -0.29819385776106        2.50365157200938       -0.37860522631407
N            2.15049962296398        1.35330078066116        0.06655325152611
C            3.31720930666074        0.72361894791723        0.04510550530012
C            3.31909033473942       -0.71482170721695       -0.05139524089942
N            2.15407868015730       -1.34766717248510       -0.07111273136658
C            2.10449955888043       -2.66662104333129       -0.16823935144760
C            0.76544611759215       -3.25082958171595       -0.15896582976045
C           -0.29107988722739       -2.50372770356115        0.37665879546587
C           -1.56998216385085       -3.00451505061412        0.41332655452083
C           -1.84738069600351       -4.27801184485608       -0.10110104270139
N           -3.13962717940481       -4.78878002925778       -0.07204987284416
C           -4.24341204494887       -3.93439030701419       -0.18260993413964
C           -5.40101549001188       -4.18482748244509        0.55741430332629
C           -6.49267572044572       -3.34668811587397        0.44117406259184
C           -6.44739744466967       -2.24928056150583       -0.40496516978144
C           -5.29870759645311       -1.99344444660975       -1.13822299723135
C           -4.20353149423681       -2.82886077609020       -1.03537787468060
C           -3.35098603472800       -6.16568211194988        0.07454285728033
C           -2.54768172770906       -6.91704826406626        0.93474319123372
C           -2.76296483516102       -8.27431491308900        1.07398602567130
C           -3.77899197697207       -8.89991578362773        0.36749566203490
C           -4.58219662396869       -8.15669365727177       -0.48407869400459
C           -4.37349699981701       -6.79959127687014       -0.63409577002939
C           -0.79674665059320       -5.02364477255799       -0.64933138338011
C            0.48498090001515       -4.52002307145950       -0.67252861022976
C            3.28433308281456       -3.44170656767916       -0.25017534960799
C            4.49863002456349       -2.80993070085946       -0.22022334553224
C            4.55703620112856       -1.40702252420831       -0.11689600120469
C            5.78994710092953       -0.69982770506463       -0.06561138843018
N            6.94674807177277       -1.38766580578118       -0.13140360020305
C            8.08822328610646       -0.69284131860837       -0.07244856427846
C            9.31733959053521       -1.36468478080283       -0.14248693698057
N           10.34125498443419       -1.89024665220335       -0.19855879600926
H            5.42044908542181        3.37174791441019        0.25767997652181
H            3.22017435030331        4.52557451125283        0.30228800288087
H            1.25616127400102        5.10878105651940        1.12647542344211
H           -1.01429538636672        5.99079104487325        1.07932944520235
H           -5.44543803410116        5.01787947311586       -1.22311105464067
H           -7.39124140869516        3.53026638624772       -1.01556351636870
H           -7.30808174277299        1.58075819100023        0.49801975728416
H           -5.26026067926409        1.12821947868791        1.80369597381257
H           -3.32280890944854        2.63122584742115        1.62381187878375
H           -1.78485375865155        6.42587614020825       -1.49269946186159
H           -2.16352830073940        8.84362537734128       -1.73549655289416
H           -3.97019617824335        9.95150504704739       -0.46809873601925
H           -5.39365743036200        8.62344584006223        1.05230162069010
H           -5.00507334417874        6.20901454776156        1.31552906882855
H           -2.37213707286393        2.41965855740417       -0.85716743107620
H           -0.07447918400701        1.52713235704965       -0.77737722872054
H           -0.06944189842251       -1.52614366456029        0.77398116632324
H           -2.36478216501727       -2.42431247833335        0.85704343514198
H           -5.43155353695900       -5.03029542651910        1.22840530508990
H           -7.38137521231187       -3.54807860891551        1.02045737071819
H           -7.30433163638778       -1.59999618165737       -0.49527867098278
H           -5.25853677701819       -1.14352271172330       -1.80281641748560
H           -3.31709238885649       -2.64126491911579       -1.62264012022801
H           -1.76709919650269       -6.42741898198286        1.49799245388408
H           -2.13914523479366       -8.84578283989301        1.74505330895265
H           -3.94360024999531       -9.96059043012778        0.48052714355970
H           -5.37150142993635       -8.63887840831670       -1.04117833982406
H           -4.98959042452001       -6.22383259975222       -1.30861937970776
H           -0.99975609644306       -5.99451341720412       -1.07611756328927
H            1.26837929161579       -5.10687002467199       -1.12660752805975
H            3.23203255335407       -4.51709015943793       -0.30758289178834
H            5.42921899356857       -3.35726893597270       -0.26635383266793
