92
 energy: -151.080443175025 gnorm: 0.000066904832 xtb: 6.7.1 (edcfbbe)
N            1.94300054705353      -11.19990554548995        0.20746798311199
C            1.41016439933329      -10.18578508367393        0.14786859053026
C            0.71054486725379       -8.95903206775394        0.07066165675463
N            1.39182183142166       -7.82467953127276        0.13559214054439
C            0.71524338110439       -6.67818295761001        0.06595509686192
C            1.42907987025277       -5.44017481989733        0.12335945441876
C            2.82929690725164       -5.37840202807716        0.23504254328542
C            3.44882461710506       -4.15671711497475        0.26823052770220
C            2.66667715067139       -2.98309419956870        0.18395229424204
C            3.24094178987682       -1.64663564214451        0.17875579418535
C            4.52672443166705       -1.36697865110435        0.65352026439414
C            5.02565839888771       -0.08550064031601        0.62964155651161
C            4.26498200860157        0.97397721471407        0.11655522366276
N            4.77458536425583        2.25928450869942        0.08292877190542
C            3.92552670115886        3.37790536452545        0.15301893401467
C            4.18453781113886        4.49889453912485       -0.63392500296984
C            3.36394587208250        5.60814686722562       -0.55382548209657
C            2.27378454289501        5.61272794035980        0.30119496433512
C            2.01061458245601        4.49929755013530        1.08290925950450
C            2.83173566427019        3.38941425752127        1.01750754045257
C            6.15987895297277        2.47879763131831       -0.02422060133176
C            6.93327930730577        1.71619792874873       -0.89807943029910
C            8.29284300573840        1.94329541346274       -0.99936795834271
C            8.89648610129272        2.93467837814298       -0.24229816056467
C            8.12928801565978        3.70110628438862        0.62032157048300
C            6.77022938711640        3.47644414492184        0.73377312637851
C            2.97479988211121        0.69620005605882       -0.35704837307641
C            2.47585121668989       -0.58216713580225       -0.31707315801569
N            1.34240952625567       -3.04520568230932        0.08004275695792
C            0.72804835665452       -4.21567723424204        0.05323389425088
C           -0.72324472061377       -4.21645073271835       -0.05471516293983
N           -1.33887721487806       -3.04664695677582       -0.08135890852109
C           -2.66324360520125       -2.98594040626537       -0.18492005878249
C           -3.23893658057128       -1.65009056633445       -0.17945246866087
C           -2.47435664768182       -0.58462938682156        0.31506205271027
C           -2.97459910878511        0.69323141904520        0.35524878868638
C           -4.26574622239947        0.96943619244526       -0.11661139163997
N           -4.77689411266107        2.25414861013407       -0.08260857823969
C           -3.92953047506113        3.37385280800167       -0.15503297702233
C           -4.18911049774642        4.49541202013818        0.63093315611235
C           -3.37026799075287        5.60577631760110        0.54842065794410
C           -2.28122665859738        5.61095042581902       -0.30802091062947
C           -2.01743958620181        4.49695626126709       -1.08872005991044
C           -2.83684981448238        3.38595503552526       -1.02093530542810
C           -6.16227790794845        2.47162151067272        0.02762161947940
C           -6.93232437449038        1.70841337698784        0.90390579156645
C           -8.29202538154910        1.93331233179252        1.00821626821503
C           -8.89909895250955        2.92309988582660        0.25180493306464
C           -8.13521677096795        3.69015464139831       -0.61320058850689
C           -6.77605576594675        3.46767155580211       -0.72969406677381
C           -5.02598208666751       -0.09102718413128       -0.62829794848587
C           -4.52566058077358       -1.37195296122160       -0.65257630696762
C           -3.44412207425749       -4.16042509266104       -0.26908950487537
C           -2.82325465197316       -5.38143872660740       -0.23624057275176
C           -1.42295136807779       -5.44170107354683       -0.12485135130523
C           -0.70776325212380       -6.67893747853658       -0.06771778408387
N           -1.38311248700287       -7.82614131400430       -0.13758392179730
C           -0.70061995546729       -8.95977659652788       -0.07291539444497
C           -1.39894555628256      -10.18726111595619       -0.15034924740491
N           -1.93074602746959      -11.20193048092080       -0.21017113668526
H            3.38781752228340       -6.30125224198427        0.28386885319999
H            4.52297992045100       -4.09594791376681        0.33199711290629
H            5.13159203720709       -2.15063989671012        1.08318497837230
H            6.01074393528486        0.11266519025619        1.02492700669152
H            5.03018274207432        4.49363047323126       -1.30594843617370
H            3.57470491751219        6.47120200084219       -1.16823784863151
H            1.63646398745404        6.48159479250363        0.36184308217100
H            1.16579453690329        4.49736910539985        1.75577296718724
H            2.63463113048422        2.52846126303975        1.63924195721016
H            6.46150217752484        0.95110342621957       -1.49734156344505
H            8.88282614437929        1.34748155605323       -1.68036391812386
H            9.95844881718955        3.11010592536496       -0.32612765883370
H            8.59274100490444        4.47462666316359        1.21491442641634
H            6.17329706999123        4.06959545347889        1.41099638222349
H            2.37654971514647        1.49479907611419       -0.76891893782961
H            1.48650902970490       -0.79779800206253       -0.68806587074540
H           -1.48428739662723       -0.79909168121471        0.68478839327526
H           -2.37663747102150        1.49262680874587        0.76599218561072
H           -5.03385962556699        4.48975330382547        1.30407719599015
H           -3.58149554278079        6.46924342426627        1.16209356133880
H           -1.64524723167147        6.48066963121183       -0.37052263036671
H           -1.17347773489884        4.49542652339164       -1.76266117020559
H           -2.63928783994586        2.52459209774424       -1.64195427331292
H           -6.45785704815340        0.94454205774356        1.50260390602313
H           -8.87941117532042        1.33702264416275        1.69103723922119
H           -9.96115924351749        3.09678734588846        0.33797913848406
H           -8.60137490570672        4.46242900996845       -1.20730449432967
H           -6.18169341193103        4.06131346611854       -1.40874588411081
H           -6.01188036983124        0.10594603092789       -1.02215728528849
H           -5.13031492182148       -2.15636109901098       -1.08116588547547
H           -4.51835965221027       -4.10087024584811       -0.33256581927282
H           -3.38077017890349       -6.30489925358043       -0.28508610987240
