92
 energy: -151.080433303835 gnorm: 0.000026015464 xtb: 6.7.1 (edcfbbe)
N           10.33341849794263        1.95155392795604        0.19110247923247
C            9.31967685474158        1.41764227256313        0.13449536712692
C            8.09341166966600        0.71671176049453        0.06137562862059
N            6.95855545740828        1.39731041544523        0.12464461888132
C            5.81249123320834        0.71963003550869        0.05896520566152
C            4.57406891001969        1.43302621917294        0.11462764423999
C            4.50988923065702        2.83359045083032        0.22085262989876
C            3.28713496603079        3.45141306588067        0.25241523618432
C            2.11458988767310        2.66721397595888        0.17248934841008
C            0.77608769377327        3.23675336410451        0.16627845015969
C            0.49213307046490        4.52661170865158        0.62714447825378
C           -0.79214396762513        5.01854673150856        0.60362585971006
C           -1.85021438964901        4.24585697776787        0.10596361865927
N           -3.13885165982491        4.74775303361547        0.07463602539972
C           -4.25164015394616        3.89366816957796        0.16769263564094
C           -5.38341061836021        4.13675554988784       -0.60892592974842
C           -6.48697583765879        3.31108817604658       -0.50582751357229
C           -6.47517619408715        2.23103843220405        0.36179631552399
C           -5.35082402440633        1.98312185010192        1.13275705895968
C           -4.24668549956720        2.80982209968445        1.04483833929790
C           -3.36550238535953        6.12966386782159       -0.05753424841330
C           -2.61270148207402        6.88855816199860       -0.95235015597980
C           -2.84645056499076        8.24485721096980       -1.07904774892410
C           -3.83479015072479        8.85935149850885       -0.32674139813007
C           -4.59124848244276        8.10641492343145        0.55702440718296
C           -4.35983090004408        6.75086867662611        0.69596706006613
C           -1.56803277802661        2.95201314844614       -0.35463881254597
C           -0.28677684097168        2.46067738112229       -0.31604162498553
N            2.17922764397608        1.34264408526681        0.07428459300204
C            3.35051251588819        0.73021931174216        0.04847774673714
C            3.35234329163231       -0.72125361913213       -0.05400764577120
N            2.18264390150784       -1.33677873946974       -0.07785836954718
C            2.12132981791749       -2.66154243354275       -0.17565476072169
C            0.78431262682182       -3.23457393965278       -0.16740131501470
C           -0.28008074238044       -2.46077614553238        0.31523713923390
C           -1.56006436739708       -2.95531211631419        0.35547231710930
C           -1.83937873327328       -4.25032885102439       -0.10355747028896
N           -3.12672612221506       -4.75551503501466       -0.07065716455283
C           -4.24178170395244       -3.90455272582741       -0.16469840761580
C           -5.37301161431854       -4.14986168732842        0.61202744621882
C           -6.47879408344776       -3.32729414280243        0.50791444993112
C           -6.46980413879108       -2.24810866333322       -0.36081687672740
C           -5.34601485102713       -1.99796892588115       -1.13187785225303
C           -4.23966726323727       -2.82160307469328       -1.04297586213137
C           -3.34947036049704       -6.13783649530452        0.06389004987537
C           -2.59402754742833       -6.89304266295517        0.95960090974173
C           -2.82375060506849       -8.24979879510970        1.08869216622416
C           -3.81066709724547       -8.86842278162769        0.33790507197731
C           -4.56975766614682       -8.11917063756968       -0.54673379070385
C           -4.34236426714523       -6.76318702946426       -0.68807030427037
C           -0.77978440511303       -5.02085918775524       -0.60130738145311
C            0.50320167774135       -4.52564996704638       -0.62661696146548
C            3.29584347842100       -3.44264327690358       -0.25715739578628
C            4.51701085931805       -2.82157116416245       -0.22780034692715
C            4.57765212701233       -1.42081511422486       -0.12206597006748
C            5.81426660703539       -0.70409811460537       -0.06889151411696
N            6.96199929542114       -1.37869711695004       -0.13698463705845
C            8.09515866584875       -0.69504753687003       -0.07623992860700
C            9.32316613822197       -1.39264416208271       -0.15200924202385
N           10.33823068877314       -1.92379481102326       -0.21081895546846
H            5.43174270455150        3.39399223306887        0.26696089720702
H            3.22502429513926        4.52572502671692        0.31218676654608
H            1.27473753217151        5.14089602549590        1.04518794366371
H           -0.99366615410067        6.00744227551507        0.98760744471066
H           -5.39107158860788        4.97418211327645       -1.29112257855275
H           -7.35840843160681        3.50981335530357       -1.11237380214585
H           -7.33939860657177        1.58937633350958        0.44034110420520
H           -5.33586466596293        1.14592012921589        1.81491745987524
H           -3.37743472334362        2.62457531109949        1.65860686354939
H           -1.84992151374814        6.40809642322495       -1.54764889669183
H           -2.25835176633986        8.82358575574995       -1.77620481865889
H           -4.01551664292381        9.91864360653896       -0.43062205357919
H           -5.36218104375838        8.57841585114688        1.14826016499874
H           -4.94528141139254        6.16502816938163        1.38937736751772
H           -2.36564732797198        2.34486365224666       -0.75525359987843
H           -0.06749301428238        1.46842970126029       -0.67698025092674
H           -0.06299785109020       -1.46760791061813        0.67497149914992
H           -2.35886244430564       -2.34977821574838        0.75617767669475
H           -5.37854301075525       -4.98658551719341        1.29510557017440
H           -7.34976748173371       -3.52776122597297        1.11454728388480
H           -7.33574018613832       -1.60885823758385       -0.44015623009648
H           -5.33321220429690       -1.16145117148690       -1.81491931237139
H           -3.37087414270974       -2.63462495051487       -1.65686501425817
H           -1.83234240963663       -6.40935597552839        1.55368695451771
H           -2.23360852657977       -8.82563358000088        1.78651892401914
H           -3.98825706363580       -9.92805865681051        0.44365637791256
H           -5.33961975490401       -8.59440389498932       -1.13677692881315
H           -4.92987750498909       -6.18023036364875       -1.38216853374906
H           -0.97912090725686       -6.01071259127799       -0.98396399797467
H            1.28693735812719       -5.13842480070794       -1.04474906432165
H            3.23652918616963       -4.51713416554231       -0.31651103326644
H            5.44028908124054       -3.37952313350352       -0.27527384219499
