92
 energy: -151.033902754996 gnorm: 0.000098018722 xtb: 6.7.1 (edcfbbe)
N           10.37140582942036        1.89312747211585        0.18593104608515
C            9.34726550707250        1.36720727067033        0.13525328013115
C            8.11863774677547        0.69441332484660        0.07172598970114
N            6.97651280402047        1.38918712083051        0.12177903252246
C            5.82041727020445        0.70116486701673        0.06169853496062
C            4.58736110136683        1.40949051192126        0.10580334600937
C            4.52444962619868        2.81308080920369        0.19667677679656
C            3.30804041033311        3.44195537130146        0.22483434321626
C            2.12970334449828        2.66356180917974        0.15612396121762
C            0.78469141974442        3.23356060951704        0.16177237168334
C            0.49938810602924        4.51915183102668        0.63015881203774
C           -0.79242169707267        4.99740603735333        0.63764068807306
C           -1.84925463521960        4.20719950465676        0.17012955371858
N           -3.15462721797533        4.68463270765935        0.18792281005843
C           -4.22535219507617        3.80881429901556        0.40310933006306
C           -5.43335762439439        3.99609097107675       -0.27234533562555
C           -6.49092942794013        3.13504013764890       -0.05292980116043
C           -6.36187860418745        2.07649071536653        0.83314049280538
C           -5.16309592913064        1.88363276257248        1.50269178241987
C           -4.10134848914330        2.74271700050429        1.29725585177122
C           -3.41021291597586        6.04740871260192       -0.00986969119704
C           -2.67889609945219        6.77347274534042       -0.95197186545949
C           -2.93912168719878        8.11622489331182       -1.14489012917613
C           -3.92765317571224        8.75219116287356       -0.40920636781940
C           -4.65794779752337        8.03415083854735        0.52562758912610
C           -4.40462612008029        6.69162620917741        0.72870602539420
C           -1.56619979587403        2.92086562239170       -0.30793091387650
C           -0.27690222268480        2.44729197639709       -0.30482368976504
N            2.18485418129216        1.34379858100452        0.06724387290049
C            3.35106507938140        0.71498892292300        0.04629913521453
C            3.34951393494325       -0.72385636244310       -0.04310668750759
N            2.18223229616115       -1.34986856721396       -0.06907579343111
C            2.12330885263912       -2.66979619135299       -0.15494150331273
C            0.77671991399451       -3.23569371260833       -0.16484827649730
C           -0.28779305025433       -2.43549493837015        0.27106171412981
C           -1.57855529585821       -2.90486816216502        0.27091780370529
C           -1.86024559961506       -4.20196164077847       -0.17783943439525
N           -3.16668361902544       -4.67703019898807       -0.19594547524223
C           -4.23225176366003       -3.80580155264273       -0.45038937700764
C           -5.44924536329194       -3.96906868498854        0.21509188739553
C           -6.50112130637267       -3.11203269415359       -0.04398506972497
C           -6.35716869047249       -2.08084606595205       -0.95956927252810
C           -5.14937117045891       -1.91181850007627       -1.61935854593671
C           -4.09336832314926       -2.76763672901689       -1.37470122125708
C           -3.42692469143672       -6.03222475896315        0.04248321205971
C           -2.70461204850411       -6.72902448423789        1.01326783558808
C           -2.97010535252566       -8.06398993306705        1.24815280421233
C           -3.95501911831374       -8.72112885077714        0.52630622918028
C           -4.67557314418216       -8.03242748288192       -0.43770688672231
C           -4.41694822638874       -6.69794803481192       -0.68281638783700
C           -0.80103604468226       -5.00610294869235       -0.61491793780241
C            0.49197634514410       -4.53116419254989       -0.60598531360705
C            3.30056195103672       -3.45091857584322       -0.21641960085230
C            4.51825101076119       -2.82509727721389       -0.18443490188963
C            4.58471562145282       -1.42132182878055       -0.09555248866543
C            5.81867717174711       -0.71612370744137       -0.04597585664533
N            6.97428620896972       -1.40696955218523       -0.10026121847392
C            8.11691299958535       -0.71485482484791       -0.04411933761675
C            9.34454295277398       -1.39071166880199       -0.10189510047983
N           10.36737460440644       -1.91933414358156       -0.14759464870068
H            5.45305860566707        3.36427228456403        0.23645310073582
H            3.25462380604113        4.51760915409829        0.27533984280817
H            1.28742171632573        5.14065444936374        1.02613794748562
H           -0.99832332959247        5.98197955094352        1.03037960568511
H           -5.52987075608354        4.81054335480553       -0.97473208610749
H           -7.41916278260928        3.28779485881502       -0.58299515620258
H           -7.19094526044675        1.40740931897679        1.00420639682811
H           -5.05760561643650        1.06514551080876        2.19882469132484
H           -3.17557518134992        2.60395731168337        1.83534970703708
H           -1.92003373155072        6.27440332443566       -1.53614349646058
H           -2.37238171453245        8.66777680911435       -1.88012618755890
H           -4.12782642119930        9.80140853850313       -0.56412848133965
H           -5.42439639746662        8.52522412702721        1.10635155126452
H           -4.96326838361549        6.13575347600536        1.46694738582898
H           -2.36647242323906        2.30817954029406       -0.69450394364082
H           -0.04992565920745        1.45947601093724       -0.67273293235026
H           -0.06138121814635       -1.43991014325389        0.61778017082817
H           -2.38137670624425       -2.28056948368219        0.63290523403188
H           -5.55737155527694       -4.76157278196387        0.94051438052099
H           -7.43666680184794       -3.24612180990783        0.47821042110769
H           -7.18183570376748       -1.41479387321750       -1.16126055857048
H           -5.03219684420380       -1.11458402833798       -2.33796065182865
H           -3.16041112650269       -2.64906681149866       -1.90514309626355
H           -1.94893493668284       -6.21268271281318        1.58649542880137
H           -2.41072272527934       -8.59247615637871        2.00562419019502
H           -4.15978383695926       -9.76403725886174        0.71433847566954
H           -5.43880845345515       -8.54042470423457       -1.00797651610962
H           -4.96798391207774       -6.16545531010628       -1.44366492502621
H           -1.00580789415758       -5.99960640219151       -0.98520039210478
H            1.28167729910832       -5.16491879123217       -0.97837992481984
H            3.24556883807291       -4.52650814654814       -0.26566351046286
H            5.44557341831096       -3.37876593069489       -0.21945192663665
