  57
        -96.25459950
 F         -2.5397927913       -2.4297287233       -1.1561765906
 C         -1.5390300005       -1.6046300098       -0.7597723622
 C         -0.2275522712       -2.0114824754       -0.9366676612
 C          0.8165052928       -1.1707995726       -0.5474120879
 N          2.0908514526       -1.4882752356       -0.7317076360
 C          3.0828239945       -0.6826637745       -0.3519567622
 C          4.4434522233       -1.0733369486       -0.7143420991
 C          5.3775672429       -0.1415858050       -1.1684184988
 C          6.6485777363       -0.5477646558       -1.5235923776
 C          7.0066478767       -1.8843353988       -1.4391455422
 C          6.0764748715       -2.8189745495       -1.0133994850
 C          4.8024254652       -2.4207213798       -0.6591316285
 C          2.7745476591        0.5071249847        0.3388206317
 C          3.7931188538        1.3624294353        0.9496401904
 C          4.8788758217        0.8228281128        1.6391610904
 C          5.8111276841        1.6548458242        2.2269335440
 C          5.6735272079        3.0317407692        2.1422108145
 C          4.5845657610        3.5741189956        1.4797406817
 C          3.6461733833        2.7478759892        0.8918910814
 N          1.5050427110        0.8721411567        0.4814269818
 C          0.4987211469        0.1065224488        0.0565478562
 C         -0.8327024391        0.4746739957        0.2096395833
 C         -1.8638593344       -0.3789167784       -0.1968363193
 N         -3.2204284070       -0.0031958445       -0.0292481256
 C         -3.7992140650        0.9274666861       -0.8771265004
 C         -3.0720752295        1.5748041115       -1.8722268710
 C         -3.6846078240        2.4979812660       -2.7010923136
 C         -5.0305475861        2.7875008242       -2.5560250246
 C         -5.7718116098        2.1449557007       -1.5777267450
 C         -5.1673755668        1.2203942006       -0.7432237283
 O         -5.9536855085        0.6120105994        0.1954163059
 C         -5.3668257947       -0.3079778089        1.0201961556
 C         -6.1694269840       -0.9173110783        1.9690660476
 C         -5.6285370071       -1.8450633892        2.8443224254
 C         -4.2807889921       -2.1529946561        2.7744543765
 C         -3.4714594870       -1.5485354883        1.8294348117
 C         -4.0015033564       -0.6278363027        0.9302120687
 H         -0.0088883780       -2.9623168126       -1.3915369073
 H          5.1002619088        0.8983115088       -1.2547718341
 H          7.3639737441        0.1820986643       -1.8730843508
 H          8.0036183632       -2.1964566741       -1.7122263341
 H          6.3465740117       -3.8635188144       -0.9575941274
 H          4.0709406331       -3.1422951207       -0.3279686093
 H          4.9830953008       -0.2486689122        1.7218380321
 H          6.6488021245        1.2274462588        2.7582798868
 H          6.4086788625        3.6781152727        2.5980614337
 H          4.4659050693        4.6462359753        1.4214314807
 H          2.7935489314        3.1619024055        0.3753993842
 H         -1.0676255045        1.4209391537        0.6684781919
 H         -2.0252430158        1.3462303983       -1.9925538400
 H         -3.1028769754        2.9890001593       -3.4655182920
 H         -5.5079136115        3.5056760535       -3.2034296594
 H         -6.8235948560        2.3421881011       -1.4466710607
 H         -7.2133947296       -0.6505803192        2.0046721398
 H         -6.2598598298       -2.3188731775        3.5789487487
 H         -3.8503952529       -2.8672404947        3.4588465106
 H         -2.4206096910       -1.7862717438        1.7838763965
