  168
  -258.162603440600        1.00000000000000      !
 C         -0.2378919762       10.5595078765       -1.3887364649
 C         -1.1435068114        9.7583918147       -2.0666906925
 C         -1.1814950688        8.3975973186       -1.8372158840
 C         -0.3095135644        7.8175822114       -0.9136198377
 N         -0.3492314167        6.4443261556       -0.6749853342
 C          0.8147599824        5.7398248232       -0.3732219767
 C          0.7746339487        4.6927558293        0.5553469771
 C          1.8978249939        3.9474641915        0.8161630953
 C          3.1117664850        4.2071263973        0.1666379838
 C          4.2807103628        3.3701505547        0.4114845987
 C          5.5824975953        3.8821720443        0.3766292555
 C          6.6706636347        3.0672171129        0.5913532049
 C          6.5072602577        1.7001543460        0.8379430710
 C          7.6840614013        0.8792587354        1.0382574846
 N          8.7893095224        1.3171182611        1.5954535360
 C          9.6341024734        0.2565135437        1.6366382015
 C         10.9448194791        0.2026018787        2.1881057356
 C         11.5255793341        1.3258689900        2.7860606041
 C         12.7793060420        1.2475212225        3.3390874050
 C         13.4682667444        0.0369040226        3.3025989157
 C         12.9088232948       -1.0727976051        2.7131206887
 C         11.6329047617       -1.0314485140        2.1304461598
 C         11.0275522654       -2.1792348011        1.4772895023
 C         11.7074640354       -3.3986117454        1.3505947593
 C         11.1556876990       -4.4786816654        0.7028872826
 C          9.8904077349       -4.3794753845        0.1323259310
 C          9.1872152600       -3.2054562847        0.2393762831
 C          9.7213551184       -2.1010167556        0.9194779481
 C          9.0313852052       -0.8666260653        1.0666051332
 N          7.7756292305       -0.4544537846        0.6922920199
 C          6.7512345109       -1.1745257779        0.0525438497
 C          6.1067533844       -2.2244519379        0.7025638816
 C          5.0232213913       -2.8410635432        0.1146032273
 C          4.5589449478       -2.4219325252       -1.1352808790
 N          3.4303103013       -3.0061613462       -1.7044882789
 C          2.5228040743       -2.2268968936       -2.4302302508
 C          1.8339148025       -2.7759568597       -3.5114275084
 C          0.9128248566       -2.0183129604       -4.2084080906
 C          0.6696341063       -0.7024342378       -3.8484306026
 C          1.3666708716       -0.1464577450       -2.7886685376
 C          2.2850335958       -0.8974736363       -2.0824586721
 C          3.1704390255       -4.3678292074       -1.4962079447
 C          4.2124941355       -5.2942535719       -1.5067927008
 C          3.9518338598       -6.6348827053       -1.2980349092
 C          2.6548542867       -7.0733528147       -1.0851085265
 C          1.6161836523       -6.1566517835       -1.0780578219
 C          1.8683696104       -4.8133605897       -1.2768129442
 C          5.2379542667       -1.3969432769       -1.7978145771
 C          6.3183735633       -0.7767206566       -1.2083528986
 C          5.2082413285        1.1909181713        0.9117645007
 C          4.1249498525        2.0105162433        0.6974178459
 C          3.1506849921        5.2781088909       -0.7342178495
 C          2.0297880848        6.0299183884       -1.0029844857
 C         -1.5473333139        5.7459987009       -0.7227687497
 C         -2.7521833895        6.3008688116       -0.2538092984
 C         -3.8982424643        5.5571884925       -0.2168544704
 C         -3.9406879742        4.2077133900       -0.6618136871
 C         -5.0926559371        3.3839072420       -0.5309148593
 C         -6.2238123875        3.7481236550        0.2591444131
 C         -7.2309225558        2.8736846192        0.5238437643
 C         -7.1916387644        1.5344833785        0.0465821622
 C         -8.1485141660        0.6025770147        0.4980997264
 N         -9.3521689091        0.9207311286        0.9760727858
 C         -9.9671430749       -0.2362851298        1.2456040688
 C        -11.2891345509       -0.4265360726        1.7412301787
 C        -12.1297511620        0.6653389914        1.9761706331
 C        -13.4106412819        0.4716939163        2.4362840029
 C        -13.8641063046       -0.8248850839        2.6607905533
 C        -13.0427003951       -1.9080339615        2.4365316331
 C        -11.7275594269       -1.7510047600        1.9765950287
 C        -10.8293173763       -2.8717877385        1.7587741630
 C        -11.2099582108       -4.1871954803        2.0447663766
 C        -10.3554661663       -5.2528876660        1.8704209387
 C         -9.0586768268       -5.0402146085        1.4066806235
 C         -8.6440918262       -3.7683213614        1.1079405410
 C         -9.5062525901       -2.6657924185        1.2604166828
 C         -9.1211305929       -1.3379023257        0.9715150091
 N         -7.9642493009       -0.7901706675        0.4865808017
 C         -6.7029861643       -1.3678504755        0.2700815856
 C         -5.6507193349       -0.9921015427        1.1027835155
 C         -4.3689512076       -1.4169605471        0.8414081437
 C         -4.0972736144       -2.2090076031       -0.2776193333
 N         -2.7853591270       -2.5469331546       -0.5911264608
 C         -1.7409589512       -1.6711009945       -0.2627802408
 C         -0.5302791110       -2.1765060878        0.2079244005
 C          0.4966203570       -1.3187128044        0.5489983011
 C          0.3264667285        0.0508880605        0.4381593909
 C         -0.8723802301        0.5601396586       -0.0316845778
 C         -1.8994888121       -0.2913146513       -0.3883335279
 C         -2.4878748214       -3.7500179110       -1.2423606169
 C         -3.1582569030       -4.9259193125       -0.9073980024
 C         -2.8563248605       -6.1068201904       -1.5578514838
 C         -1.8820243851       -6.1359121517       -2.5427528970
 C         -1.2110694255       -4.9703153646       -2.8752743955
 C         -1.5088887050       -3.7832604755       -2.2347161568
 C         -5.1637007561       -2.6257695654       -1.0802719605
 C         -6.4516883721       -2.2145302131       -0.8079655820
 C         -6.1624419968        1.2215345234       -0.8819822751
 C         -5.1718445085        2.1072914787       -1.1595529825
 C         -2.7275681603        3.6971797657       -1.2004129946
 C         -1.5764953506        4.4279769758       -1.2158599966
 C          0.5987902488        8.6291682190       -0.2310817755
 C          0.6319689763        9.9879824321       -0.4731644776
 H         -0.2100152888       11.6223088884       -1.5728608422
 H         -1.8198129893       10.1951237052       -2.7861613294
 H         -1.8745012353        7.7692479315       -2.3769271770
 H         -0.1488348228        4.4863635325        1.0754915427
 H          1.8476992519        3.1697783754        1.5625880282
 H          5.7353746468        4.9367566670        0.2012968079
 H          7.6723416926        3.4674383588        0.5717408010
 H         10.9538645023        2.2407645338        2.8004012846
 H         13.2303033986        2.1121091669        3.8029792756
 H         14.4528801021       -0.0322063321        3.7420052410
 H         13.4786441573       -1.9884015136        2.7114924744
 H         12.6976558417       -3.5057948056        1.7628536501
 H         11.7103507158       -5.4021910481        0.6268512298
 H          9.4646338123       -5.2205494904       -0.3950375572
 H          8.2142742961       -3.1247738586       -0.2175154876
 H          6.4473512168       -2.5345133671        1.6796413118
 H          4.5124336885       -3.6390986020        0.6314743101
 H          2.0266614153       -3.7987828485       -3.7981342196
 H          0.3844617773       -2.4563760676       -5.0427594208
 H         -0.0536306726       -0.1148618765       -4.3931334355
 H          1.1869028971        0.8785060993       -2.5005772921
 H          2.8183837237       -0.4572844044       -1.2551169808
 H          5.2231810481       -4.9562808697       -1.6831155914
 H          4.7668064445       -7.3432551694       -1.3108557143
 H          2.4557042054       -8.1220651481       -0.9267456305
 H          0.6003260961       -6.4848590747       -0.9123757154
 H          1.0594937719       -4.1011028396       -1.2688082962
 H          4.9032097917       -1.0845212388       -2.7748074277
 H          6.8290915089        0.0280658323       -1.7150335217
 H          5.0397610531        0.1554172731        1.1585583458
 H          3.1342842086        1.5848400959        0.7307002142
 H          4.0679268863        5.4957231912       -1.2601878266
 H          2.0738062380        6.8329696000       -1.7240774978
 H         -2.7535684963        7.3172700362        0.1129653652
 H         -4.7945902142        6.0185207822        0.1649943335
 H         -6.2672389128        4.7319594694        0.6988882201
 H         -8.0615592003        3.1539355222        1.1524555526
 H        -11.7392105764        1.6518022902        1.7802591607
 H        -14.0619656412        1.3130935958        2.6189640177
 H        -14.8716043728       -0.9865117052        3.0159221745
 H        -13.4403820733       -2.8929352429        2.6231623697
 H        -12.1993756186       -4.3892649770        2.4220667946
 H        -10.6879053961       -6.2535460745        2.1026007741
 H         -8.3826620366       -5.8739447560        1.2857588591
 H         -7.6363755923       -3.6029992719        0.7640576428
 H         -5.8504818381       -0.3543125757        1.9503325274
 H         -3.5614687744       -1.1221269807        1.4929445730
 H         -0.4107378696       -3.2435333321        0.3201985875
 H          1.4279880436       -1.7230383463        0.9178394634
 H          1.1219587408        0.7230269168        0.7179321108
 H         -1.0071570103        1.6275410856       -0.1202880691
 H         -2.8354375436        0.1054929116       -0.7505744820
 H         -3.9104497193       -4.9060316930       -0.1325783953
 H         -3.3799006695       -7.0119774491       -1.2879515943
 H         -1.6469488619       -7.0605258793       -3.0475098980
 H         -0.4518045716       -4.9835626502       -3.6426011861
 H         -0.9896706728       -2.8746963124       -2.5001737301
 H         -4.9712252595       -3.2482029679       -1.9407633728
 H         -7.2642242539       -2.5112420355       -1.4553436507
 H         -6.1960838669        0.2866566496       -1.4170062041
 H         -4.4456822399        1.8410114957       -1.9118495959
 H         -2.6972147183        2.6939209316       -1.5905475135
 H         -0.6694814183        4.0035621570       -1.6217256854
 H          1.2645476282        8.1857706753        0.4946728864
 H          1.3361945059       10.6062635767        0.0630445002
