82
 energy: -122.826956399805 gnorm: 0.000063476343 xtb: 6.7.1 (edcfbbe)
C           -5.40085373420498        4.40586204821799        0.26648513784908
C           -5.87412224408376        3.12800253543627        0.51545607064546
C           -4.99458609004859        2.07094369759800        0.65545615340855
C           -3.62187359376859        2.28034356032883        0.53968874678141
C           -2.65672069371845        1.20051902173003        0.67562146761635
N           -1.38892600216336        1.45671928105333        1.09579248978644
C           -0.75709920288187        0.30952979503360        1.14695286732689
C            0.64815202583551        0.21047933065481        1.48988514966815
C            1.48884077859761       -0.79258757996006        1.01676981279279
C            2.83435425495312       -0.79793615068517        1.33091836403865
C            3.37543302278354        0.21101405912651        2.12128542041284
O            4.67697466451245        0.28586345798945        2.51274535510939
C            5.70565580394125       -0.20008220631701        1.66728080001747
C            6.58820561388071        0.97393595255454        1.23472541033837
C            5.84570136050681        1.98910224688608        0.36131693439704
C            5.81652638182578        1.62841202359889       -1.13107430919204
C            4.94551330187232        0.45296406560963       -1.47617482772604
C            5.48309084328989       -0.79389158012905       -1.75889158243329
C            4.69120004933479       -1.88187283123934       -2.11831184176028
C            3.32226597729260       -1.75557902807028       -2.23850056012855
C            2.74878332975503       -0.51866055799017       -1.97482240239060
C            3.55974572393675        0.56868168041765       -1.57161632219915
N            2.75833484497358        1.66430846469168       -1.36933506229723
C            1.45635794268179        1.33460926401736       -1.64764610965265
C            0.31704125862675        2.12371710104422       -1.62394733402468
C           -0.87696639016023        1.54140338020455       -2.00090475340885
C           -0.94247008782179        0.20172911839308       -2.37879466126039
C            0.18716492304828       -0.59146454905754       -2.39501430084192
C            1.40218321295636       -0.02389027362469       -2.03394748470535
C            2.53345745848275        1.21716013422659        2.60209708187606
C            1.19521448825470        1.21867157783797        2.28761501503711
N           -1.58351895741627       -0.72079930160810        0.77809630450382
C           -1.30079997866750       -2.09730939571110        0.77623963182123
C           -1.54962439035449       -2.86257040167075       -0.35730761799090
C           -1.28825255030900       -4.22030196973669       -0.33841211747781
C           -0.78146565584622       -4.81890650589296        0.80279124804895
C           -0.53716432167494       -4.05566574651120        1.93295603059749
C           -0.79970615747679       -2.69873256613838        1.92670648556622
C           -2.80135093738877       -0.15936325341494        0.45802873308854
C           -3.93528900420276       -0.93874212734228       -0.01902306663694
C           -4.61443011282244       -0.53705506326017       -1.16930571878901
C           -5.68473814434056       -1.27121206285214       -1.64154345635406
C           -6.09294921140465       -2.41617133936043       -0.97585495124202
C           -5.42928590608337       -2.81779594340410        0.17105352581016
C           -4.35784695450570       -2.08655769184526        0.64917418571844
C           -3.15287726700249        3.57340992211631        0.30951898535046
C           -4.03613490514114        4.62583121760954        0.17108697417848
H           -6.09299917747543        5.22793125451538        0.15542744591691
H           -6.93693566366631        2.95446413057831        0.60634715665161
H           -5.37207419074962        1.08176718786333        0.86797674190504
H            1.10556315961204       -1.57338523434209        0.37917405422783
H            3.45141598790949       -1.59839422493892        0.95169396752511
H            5.29910551702967       -0.70467104895779        0.78987120390159
H            6.29973274526446       -0.91616271012990        2.24732713320259
H            7.45837593892174        0.58425609297054        0.70405801259221
H            6.93770428378159        1.47350051002077        2.14030313409411
H            6.34377691493436        2.95686801052769        0.45836800804788
H            4.82757859427327        2.10333529756744        0.73878160253093
H            6.83779601255242        1.42424030790492       -1.46054213861013
H            5.46078220365424        2.50134934803391       -1.68722057520721
H            6.55500009050351       -0.92358302070644       -1.70284411068558
H            5.16465386898343       -2.83153478313405       -2.32015594721817
H            2.70985645505522       -2.59305550473970       -2.53697935071674
H            3.06964170476204        2.56640162304637       -1.05500261407380
H            0.36210742568060        3.15943596124406       -1.32400367988183
H           -1.77887235448353        2.13519935893187       -2.00117726106516
H           -1.89622778494308       -0.21521836058248       -2.67022130800808
H            0.13637931439809       -1.62895241059754       -2.69223915555481
H            2.96136938015507        1.98958065048746        3.22272315552677
H            0.54469487872993        2.00272793867726        2.64136089461683
H           -1.94343913039826       -2.39014852390146       -1.24334060096538
H           -1.48179211524480       -4.81256766684179       -1.22035135901677
H           -0.57903480902813       -5.87927452386222        0.81288963599771
H           -0.14684345100474       -4.51951106715455        2.82636627663270
H           -0.61575430743331       -2.09642378235098        2.80411905965168
H           -4.29410240353683        0.35656832701158       -1.68477953412863
H           -6.20161129161965       -0.95173273866102       -2.53472388112803
H           -6.92836148715671       -2.99055065369074       -1.34791018435719
H           -5.74894763169789       -3.70437321454512        0.69910604524494
H           -3.85467500850503       -2.39785045214565        1.55344623907085
H           -2.08679377298430        3.72684892691368        0.24559857387428
H           -3.66212137039524        5.62316261043482       -0.01216214783189
