82
 energy: -122.738020371386 gnorm: 0.000080786019 xtb: 6.7.1 (edcfbbe)
C           -5.66515049122597        4.29923118364661        0.10942780731666
C           -6.09683475654024        3.01656345464966        0.40998653930108
C           -5.18943003333463        1.98495168254699        0.54576400381446
C           -3.82066546976331        2.22428662265794        0.37635733729772
C           -2.82381772695821        1.19087338462073        0.52862573482529
N           -1.62661064345228        1.48188102820117        0.99174293785039
C           -0.92509793737698        0.34059358145748        1.11323469770679
C            0.44584552301417        0.36685106134613        1.41185185387454
C            1.35287828751436       -0.71443967089491        1.26724778102564
C            2.68966119251011       -0.56558327252180        1.54165769485358
C            3.20236491379281        0.66663883098414        1.95700813587276
O            4.49950713799983        0.93335202432083        2.24530875171455
C            5.53102086594918        0.07030119149852        1.80314247241060
C            6.69297836753683        0.93847925695631        1.31701618203453
C            6.28455506203901        1.86535405738000        0.16914816411205
C            6.27329661147673        1.19541580668767       -1.21219989240401
C            5.26598402733877        0.09067209501958       -1.37316341681520
C            5.66045540610247       -1.23611315130258       -1.46949289870662
C            4.74877421384835       -2.27479619016555       -1.64162341007198
C            3.39634577576264       -2.02249069671881       -1.74800036828623
C            2.96418976449656       -0.70521070106922       -1.66860147257213
C            3.89708840987949        0.33924746514543       -1.46463620634671
N            3.21740827532487        1.53125679602177       -1.41272573588853
C            1.87785985486924        1.30067328505517       -1.59609409273265
C            0.82236095804021        2.19785530180640       -1.65044122350641
C           -0.43854362055376        1.69207861095576       -1.89726888403162
C           -0.65086972904587        0.32578166285131       -2.07306984090428
C            0.39305405687215       -0.57363661107994       -2.00174929546129
C            1.67203916100521       -0.08731803120478       -1.76451071645884
C            2.31674582973126        1.75464392195865        2.10028045373215
C            0.98984716800977        1.61502755536541        1.83158375405583
N           -1.74855611951682       -0.76538121358795        0.79183266781143
C           -1.40307017622720       -2.11262007769146        0.84749524818419
C           -1.61583292155088       -2.95190798765849       -0.25046226893394
C           -1.28124914166290       -4.28798822441797       -0.17100349225555
C           -0.73839149257247       -4.81102171681578        0.99378433193458
C           -0.52995896160064       -3.98222884771165        2.08702871478414
C           -0.85950367891674       -2.64402620276780        2.02194648471839
C           -2.95218047769294       -0.24483906538701        0.33952351805902
C           -4.05609450242448       -0.97950243118922       -0.15725020260676
C           -4.85696923054182       -0.42911939159931       -1.18922292019643
C           -5.93066743170586       -1.12048614832562       -1.69353524304482
C           -6.26358145896069       -2.37657820869337       -1.19376882989321
C           -5.49677006600634       -2.92918593414985       -0.17181990367834
C           -4.41128104745304       -2.25810728898779        0.33626579569212
C           -3.39357446526859        3.53100930641010        0.10911711749960
C           -4.30728465048173        4.55315817762644       -0.03086448436511
H           -6.38132739634113        5.09969620169720       -0.00329947077815
H           -7.15068296048528        2.82070181300051        0.54526716475506
H           -5.53380877102409        0.99803252540651        0.81354015301832
H            1.00876912503807       -1.66582665069893        0.90118994751004
H            3.33859483914055       -1.42000699734861        1.42298896571034
H            5.18415957122093       -0.57195464218704        0.99173150942206
H            5.85592107172065       -0.55948988119041        2.64203719142307
H            7.51301729370465        0.28813626948942        1.00968955378151
H            7.03340521942931        1.54725429972933        2.15654839188351
H            6.99067337788778        2.69800305914210        0.12697952474429
H            5.30094367305359        2.27850789137832        0.39852352795269
H            7.26970117820658        0.79519468259619       -1.41276913337117
H            6.07228818826173        1.96707337992592       -1.96244214233932
H            6.71394995274391       -1.47098944599238       -1.40820052117959
H            5.11463878328909       -3.28914816001508       -1.70229793061554
H            2.68845418645535       -2.82426620294719       -1.89282075844826
H            3.63339846763848        2.43571052272527       -1.27679913115687
H            0.98260774781261        3.25671015458395       -1.51254755209071
H           -1.27958117055451        2.36643504676946       -1.95833902803284
H           -1.65321675559713       -0.02718770222232       -2.27063193134052
H            0.22735743810449       -1.63250829428440       -2.13355033757104
H            2.72640166597586        2.69847723891100        2.42663223526778
H            0.31032674766715        2.44520365740154        1.93236187054234
H           -2.03471648056295       -2.54530364231780       -1.15801360436409
H           -1.44149849908396       -4.92838502061027       -1.02611194997546
H           -0.48226616814090       -5.85799380410805        1.05050143637955
H           -0.11602617086904       -4.38545535385125        2.99958954197651
H           -0.70727368311245       -1.99591360275770        2.87258539413934
H           -4.58489550857179        0.52912191128850       -1.60604380055468
H           -6.51632895408963       -0.68866776867525       -2.49245944357210
H           -7.10876696725935       -2.91562428873275       -1.59330182598441
H           -5.76149734684088       -3.89547210405983        0.23324220731444
H           -3.85582527041815       -2.68296073310872        1.15801222247692
H           -2.33436697464437        3.71066927585751        0.00852281384458
H           -3.96698006526020        5.55475720518584       -0.25086170160821
