82
 energy: -122.813201106786 gnorm: 0.000055995814 xtb: 6.7.1 (edcfbbe)
C           -7.13999067558136       -5.20011724314089        0.68696959227466
C           -5.79995758441958       -5.07463028331109        1.01597715315375
C           -5.15073917580553       -3.86945505765302        0.83354656049861
C           -5.83528995298286       -2.76743843954729        0.32244495366400
C           -5.11453237498360       -1.51668738856308        0.14031198021492
N           -3.76658676923497       -1.51728223243475       -0.05122953881589
C           -3.39849139342382       -0.27193269742859       -0.22113995702537
C           -2.01568377540895        0.13175269202664       -0.40294753467844
C           -1.14829176376070       -0.75197748572763       -1.04016114644569
C            0.18649721022029       -0.44465348184251       -1.21654418866197
C            0.68956993766708        0.76433219848651       -0.74361421069772
O            1.98049477002618        1.17038732979932       -0.85193962311807
C            2.93075392453436        0.28593258800856       -1.41278930308938
C            4.31070065626641        0.92009270834074       -1.26741460600459
C            4.72181047959859        1.12054620715128        0.19151351164011
C            5.02778373994860       -0.19318466602045        0.92593669334960
C            6.16957152916509       -0.93552696135617        0.29177394068934
C            5.96882985032968       -2.03089884794846       -0.53274440871912
C            7.02380882120821       -2.70078223007209       -1.14838067811273
C            8.32994395392827       -2.29881679170732       -0.96022980251978
C            8.57119913460731       -1.20715297322426       -0.13536126769243
C            7.49027152699769       -0.53434085694639        0.47987207485223
N            7.98603315940639        0.49889162865320        1.23745388998016
C            9.35367708681038        0.51545336867422        1.14362691909241
C           10.27119854355275        1.36854546663263        1.73762379771705
C           11.61006784719348        1.16036014928611        1.46755421946506
C           12.02908571886745        0.13056054963033        0.62726520723754
C           11.11917968620707       -0.72113776196931        0.03314287823798
C            9.76700892038200       -0.53331076070046        0.28907607298733
C           -0.17411645300934        1.64741784663523       -0.09127339295642
C           -1.50401630459943        1.33699711489697        0.08059813189996
N           -4.47790743272635        0.57232385040696       -0.15218824940454
C           -4.49195235133171        1.96572441917822       -0.33523938496483
C           -3.93615450583382        2.51588644266900       -1.48580746224931
C           -3.96010895222919        3.88534981877863       -1.67063523580657
C           -4.54393849327958        4.70765637617857       -0.72071395010694
C           -5.10025993059271        4.15782394799762        0.42202933032855
C           -5.07482882576989        2.78970226194050        0.62118070242718
C           -5.58410346994690       -0.21468572324027        0.09200494944216
C           -6.92306923323458        0.33352081464823        0.26070381855380
C           -7.45034263519667        1.24412364204159       -0.65316773872890
C           -8.71878227606655        1.76194387347621       -0.46866713152604
C           -9.47676375994134        1.37971719508126        0.62518014086395
C           -8.96220091415892        0.46964697709183        1.53491751489444
C           -7.69472321478205       -0.04968652373892        1.35753287877467
C           -7.17756932820141       -2.90688125563602       -0.02488302071044
C           -7.82238210631252       -4.11507957355142        0.16165460300949
H           -7.64940352338034       -6.14174242795516        0.83216098118436
H           -5.26104960679262       -5.92127655723372        1.41675670532717
H           -4.10638367226796       -3.75638048650975        1.08019853947204
H           -1.54153450788420       -1.69144468760579       -1.39564354865654
H            0.82354097938675       -1.15131311485997       -1.72470170174186
H            2.70970669026094        0.11931574159854       -2.47652403015715
H            2.89635309104913       -0.68104209793636       -0.89631551299572
H            4.28949036791592        1.89171373040595       -1.76374108245662
H            5.04082119035107        0.28802154380609       -1.77560960509700
H            3.91801182695714        1.64415063813560        0.71175536327341
H            5.60983586015523        1.75617507649325        0.21008089493779
H            4.13962037315270       -0.82596484334979        0.93200791938591
H            5.26999943717706        0.03669780709468        1.96748428108879
H            4.95991574103755       -2.38081556748916       -0.70009119231526
H            6.80813449761280       -3.54894601218310       -1.78123073210496
H            9.14701613487642       -2.81825561172556       -1.43705599447532
H            7.43721114595574        1.12451724629216        1.80064639415712
H            9.94946910935117        2.16735622817432        2.38994477563927
H           12.34827860858973        1.80832416514369        1.91688143688300
H           13.08498342863226        0.00060696322525        0.44144199042920
H           11.44811093196121       -1.51804559601830       -0.61677469247756
H            0.22991387107867        2.57500575280573        0.28308570943918
H           -2.14001324223013        2.02638072083373        0.61514994579006
H           -3.48800598867747        1.86614699631063       -2.22289995695071
H           -3.52697736558769        4.31088576815123       -2.56331896980190
H           -4.56522940771823        5.77636099650619       -0.87140302280989
H           -5.55457581684876        4.79587241744442        1.16507039855282
H           -5.50102055551002        2.35560643106655        1.51328426411434
H           -6.87049590401048        1.53558568833903       -1.51732752435047
H           -9.11782867059865        2.46543534788897       -1.18482531595783
H          -10.46682237206255        1.78697467507123        0.76717544192386
H           -9.55048588899463        0.16684672434941        2.38874374006417
H           -7.28876756749117       -0.75712354118194        2.06587414184832
H           -7.71265622200247       -2.07224992775375       -0.45306062047545
H           -8.86386681758586       -4.21241241911252       -0.11004310383404
