  118
       -187.38573366
 C          6.9641313304       -4.4704794628        1.7794625174
 C          6.6799744205       -4.1494988119        0.4624145403
 C          7.0408103918       -2.9152905208       -0.0470587274
 C          7.6879339636       -1.9963548692        0.7709032731
 N          8.0266413723       -0.7268640341        0.2615879662
 C          7.1290453185        0.2405155320       -0.1473190947
 C          5.6900411268        0.1423787585       -0.0871720737
 C          4.9935712195       -0.6437383877        0.8373224987
 C          3.6190631074       -0.6860100151        0.8246764712
 C          2.8703760374        0.0749133755       -0.0851620036
 C          1.4205473340        0.0263502123       -0.0873103798
 C          0.6645301355        1.2372623416       -0.0219248564
 C          1.2808722071        2.4824495206        0.1488789298
 C          0.5517833950        3.6639837706        0.1175735874
 C         -0.8125822642        3.6235010945       -0.0941460899
 C         -1.4595190681        2.3986674836       -0.1926707739
 C         -0.7596005245        1.1904519492       -0.0908525266
 C         -1.4313501317       -0.0709460042       -0.0886258810
 C         -2.8815984968       -0.1191428893       -0.0874182965
 C         -3.6277575128        0.6009112239        0.8572363953
 C         -5.0022524289        0.5630721225        0.8668114825
 C         -5.6998118103       -0.1801615183       -0.0913396692
 C         -7.1405956494       -0.2645211128       -0.1509641941
 N         -7.7708304455       -1.3279571692       -0.5971123150
 C         -9.0924027884       -1.0592837349       -0.4861142319
 C        -10.1859420114       -1.9132666474       -0.8081159929
 C        -10.0152754289       -3.2040874417       -1.2945891312
 C        -11.1176999987       -3.9948864912       -1.5718907045
 C        -12.3930663386       -3.5069272641       -1.3705067569
 C        -12.6010252068       -2.2108786520       -0.8878561400
 C        -13.9121424993       -1.6917175660       -0.6876282076
 C        -14.1003186254       -0.4282247878       -0.2447438787
 C        -12.9980506178        0.4286758454        0.0434150159
 C        -13.2016052306        1.7432270581        0.4733681316
 C        -12.1294961767        2.5733182942        0.7225853486
 C        -10.8324591755        2.1106328175        0.5809758846
 C        -10.5805225504        0.7968314553        0.1864583726
 C        -11.6788040736       -0.0611470852       -0.1187241058
 C        -11.4848754308       -1.3884998894       -0.5958161066
 C         -9.2853051635        0.2265362633        0.0310982520
 N         -8.0208667338        0.7213521861        0.2505827337
 C         -7.6499408833        1.9874694076        0.7441734825
 C         -7.9501970921        2.3431309387        2.0558837916
 C         -7.5492744045        3.5749781009        2.5391031508
 C         -6.8465423888        4.4485874474        1.7246631497
 C         -6.5476453388        4.0918578955        0.4201840026
 C         -6.9482619821        2.8643027011       -0.0751545156
 C         -4.9615373142       -0.9202536391       -1.0245222533
 C         -3.5887575703       -0.8946087209       -1.0201557484
 C         -0.6754193680       -1.2834418405       -0.0819721051
 C         -1.2913049647       -2.5359153222        0.0278348378
 C         -0.5622454161       -3.7142127041       -0.0635432170
 C          0.8018097503       -3.6630518341       -0.2746848691
 C          1.4486375849       -2.4347180873       -0.3121844070
 C          0.7486190753       -1.2332943381       -0.1497877472
 C          3.5758169265        0.8927695918       -0.9829276519
 C          4.9479868531        0.9194948287       -0.9881550599
 N          7.7429546541        1.3092027489       -0.6063659155
 C          9.0680190685        1.0624718212       -0.4974293682
 C         10.1468939501        1.9282600708       -0.8370523985
 C          9.9539925609        3.2077890125       -1.3444711459
 C         11.0428539465        4.0100156935       -1.6420048556
 C         12.3263753111        3.5449592203       -1.4382979595
 C         12.5565813020        2.2612702529       -0.9332814753
 C         13.8764554719        1.7668329352       -0.7280860098
 C         14.0857797380        0.5149211562       -0.2624469373
 C         12.9981669801       -0.3543967348        0.0437393223
 C         13.2244542726       -1.6573664328        0.4970424710
 C         12.1666275401       -2.5001788857        0.7640778222
 C         10.8618988249       -2.0619434981        0.6160156364
 C         10.5871191303       -0.7601072938        0.1973297793
 C         11.6707293986        0.1107132146       -0.1240592428
 C         11.4545556540        1.4267561663       -0.6225034689
 C          9.2825248400       -0.2142614951        0.0341740495
 C          7.9732912714       -2.3159752704        2.0951607236
 C          7.6117861202       -3.5542938072        2.5928567024
 H          6.6805124427       -5.4345541300        2.1734834213
 H          6.1766882029       -4.8629837719       -0.1723986078
 H          6.8211553460       -2.6523983143       -1.0711583741
 H          5.5252019707       -1.1999374036        1.5937342959
 H          3.0987284764       -1.2763233196        1.5652622020
 H          2.3456475347        2.5296714683        0.3168802147
 H          1.0599942150        4.6083917260        0.2433066799
 H         -1.3833137141        4.5373950711       -0.1674542768
 H         -2.5260735534        2.3816353955       -0.3571513607
 H         -3.1052787478        1.1548932867        1.6238562258
 H         -5.5347420444        1.0869398401        1.6457221647
 H         -9.0109135110       -3.5684799365       -1.4432697176
 H        -10.9784076721       -4.9984142482       -1.9471021952
 H        -13.2521997595       -4.1255518490       -1.5886113818
 H        -14.7544446235       -2.3330729321       -0.9059039665
 H        -15.0969647427       -0.0347425300       -0.1020640466
 H        -14.2121212173        2.1056563769        0.5958762221
 H        -12.2965050470        3.5948314095        1.0322990629
 H        -10.0120021108        2.7844637210        0.7693466340
 H         -8.4937092026        1.6513934870        2.6830609470
 H         -7.7818009344        3.8506803011        3.5567907907
 H         -6.5312877898        5.4071330124        2.1079607787
 H         -6.0015161843        4.7718476104       -0.2159956257
 H         -6.7178827286        2.5739218216       -1.0894426259
 H         -5.5018748801       -1.5018899108       -1.7548994736
 H         -3.0381745675       -1.4395289905       -1.7731612381
 H         -2.3557599941       -2.5909743145        0.1953847566
 H         -1.0702107440       -4.6638058436        0.0155380049
 H          1.3729907824       -4.5716538656       -0.3951025962
 H          2.5149951835       -2.4087632453       -0.4765782886
 H          3.0230278843        1.4700108665       -1.7097826120
 H          5.4869875514        1.5326080247       -1.6932124360
 H          8.9433328684        3.5539343928       -1.4941070121
 H         10.8864330714        5.0042318749       -2.0347411646
 H         13.1749465714        4.1725932100       -1.6717208669
 H         14.7076391546        2.4176236579       -0.9604901541
 H         15.0888438496        0.1399575489       -0.1148866527
 H         14.2411017961       -2.0005755618        0.6238719713
 H         12.3510869280       -3.5126290779        1.0930569046
 H         10.0534339392       -2.7457758647        0.8193825098
 H          8.4755381780       -1.5920969412        2.7203995377
 H          7.8330982042       -3.8022878081        3.6200877203
