  94
  -147.636367218200        1.00000000000000      !
 C          7.9671902846       -0.8075520558       -0.9233540272
 C          6.8903299972        0.1103582116       -1.5332027059
 C          7.3268185300        0.5863019637       -2.9320221666
 C          5.6029928355       -0.6722918054       -1.6723153395
 C          5.5656576619       -1.8054137861       -2.4723367546
 C          4.4051384203       -2.5366194564       -2.6532823643
 C          3.2329025318       -2.1218514876       -2.0385222452
 C          3.2413663149       -1.0059909840       -1.2339750953
 C          4.4232258022       -0.2809859740       -1.0186372176
 N          4.4011222699        0.8083917518       -0.1766921466
 C          3.2193407874        1.0810227296        0.5645380898
 C          2.4005863152        2.1736576231        0.2287642086
 C          1.2821417318        2.4456032790        0.9750126455
 C          0.9676182090        1.6469983227        2.0804063891
 S         -0.5675345652        1.8630853229        2.9265947593
 O         -0.9810980645        3.2494464570        2.8707615004
 O         -0.4786422886        1.2394212497        4.2309408456
 C         -1.6532000114        0.9101604582        1.8952210194
 C         -1.4864572921       -0.4753959678        1.8417556183
 C         -2.1698752901       -1.2085202970        0.8873076695
 N         -1.9645760820       -2.5889940285        0.8018550256
 C         -2.9370410877       -3.5615406368        0.7084024092
 C         -4.3185236618       -3.4375722543        0.7475913803
 C         -5.0745890219       -4.5938769386        0.6564224909
 C         -4.4738664752       -5.8447233838        0.5375574092
 C         -3.0969159399       -5.9782919110        0.5226598746
 C         -2.3173169286       -4.8331695780        0.6146642982
 C         -0.9013915480       -4.6006139985        0.6559881377
 C          0.2090310577       -5.4322895374        0.5910533855
 C          1.4678254593       -4.8605828391        0.6414159427
 C          1.6288415832       -3.4808981220        0.7415517191
 C          0.5374947043       -2.6304435529        0.8043497986
 C         -0.7274687453       -3.1996749103        0.7792792536
 C         -3.0658887517       -0.5774952952        0.0114815375
 C         -3.2402281140        0.8130418321        0.0943001288
 N         -4.1505497337        1.4533685818       -0.7505017367
 C         -5.0843565079        2.3853986100       -0.3450418168
 C         -5.3645737551        2.8569474249        0.9298308580
 C         -6.3851609985        3.7827251188        1.0651789265
 C         -7.1172787396        4.2213052112       -0.0356242657
 C         -6.8617203176        3.7334555835       -1.3051915950
 C         -5.8430085653        2.8043230816       -1.4662698223
 C         -5.3277618285        2.0864308375       -2.5980001364
 C         -5.6454096890        2.0762062313       -3.9490344059
 C         -4.9132659552        1.2626129204       -4.7954518741
 C         -3.8674140942        0.4793227214       -4.3134964306
 C         -3.5332670272        0.4713602828       -2.9698127678
 C         -4.2811026505        1.2633947384       -2.1099177539
 C         -2.5081709465        1.5571743944        1.0050048394
 C          1.7685537206        0.5425793442        2.4021971830
 C          2.8855191056        0.2654737857        1.6563508125
 C          5.5121473235        1.6010010661        0.0150187317
 C          5.4362675418        2.6979977394        0.8867145450
 C          6.5230925728        3.5178127169        1.0859509656
 C          7.7156302565        3.2557157828        0.4284441825
 C          7.8038114887        2.1602682137       -0.4109165497
 C          6.7243295155        1.3168286853       -0.6343191145
 H          8.1282944711       -1.6815588953       -1.5479798199
 H          7.6541484758       -1.1423749003        0.0638664042
 H          8.9118235551       -0.2808077956       -0.8229961648
 H          7.4685701310       -0.2574010103       -3.6010925536
 H          6.5650591282        1.2377892509       -3.3562352958
 H          8.2606715347        1.1381954164       -2.8795721490
 H          6.4644080206       -2.1326158141       -2.9721759527
 H          4.4130833142       -3.4163545834       -3.2775857136
 H          2.3144230848       -2.6699875450       -2.1825192194
 H          2.3313682455       -0.6748132402       -0.7625685633
 H          2.6674624204        2.7894869830       -0.6175186540
 H          0.6389412814        3.2796987049        0.7460254157
 H         -0.8523677882       -0.9550828030        2.5668323934
 H         -4.7905359280       -2.4744102990        0.8643097453
 H         -6.1513356545       -4.5232635681        0.6829799758
 H         -5.0966541075       -6.7236670589        0.4665330129
 H         -2.6347974385       -6.9506345673        0.4468626318
 H          0.0882879546       -6.5008481082        0.5004823960
 H          2.3434753472       -5.4905584498        0.5947704711
 H          2.6241696116       -3.0635272697        0.7625893448
 H          0.6702090357       -1.5622912806        0.8729307291
 H         -3.6205664787       -1.1538302738       -0.7083583620
 H         -4.8109589910        2.5122021127        1.7887092382
 H         -6.6183333242        4.1691035677        2.0455165201
 H         -7.9036315996        4.9465914943        0.1095102361
 H         -7.4425221903        4.0626945975       -2.1531267568
 H         -6.4445386371        2.6945226182       -4.3280464579
 H         -5.1468626948        1.2399544483       -5.8491961382
 H         -3.3022002450       -0.1314929590       -5.0010346140
 H         -2.7057978851       -0.1196745789       -2.6087366995
 H         -2.5791246135        2.6306126766        1.0468921097
 H          1.5019124927       -0.0485969248        3.2625588856
 H          3.5259759450       -0.5678182339        1.9055617425
 H          4.5135114350        2.8930207235        1.4075511014
 H          6.4420122641        4.3589290865        1.7568725745
 H          8.5734615905        3.8928101733        0.5767416444
 H          8.7449453746        1.9594674527       -0.8992864440
