  66
       -104.84090109
 C         -7.7997377506       -1.2517150619        0.8344331400
 C         -6.7621415201       -1.0191016849       -0.2816322693
 C         -7.3490299059       -1.4226710926       -1.6486843911
 C         -5.5513133159       -1.8801770597        0.0030661968
 C         -5.6883354871       -3.2595957394        0.0786911809
 C         -4.6181280540       -4.0867607130        0.3658014588
 C         -3.3689539180       -3.5320154529        0.6044592474
 C         -3.2014946920       -2.1686894669        0.5351099312
 C         -4.2782769047       -1.3259013003        0.2169432406
 N         -4.0740256997        0.0342273934        0.1385508837
 C         -2.7628406573        0.5439721980        0.3432645131
 C         -2.4352424500        1.2066843399        1.5302839141
 C         -1.1628594632        1.6763088390        1.7254780865
 C         -0.1562974051        1.4734386767        0.7556971957
 C          1.1683295658        2.0014492878        1.0269191845
 O          1.3117430154        2.9318119704        1.8644285946
 C          2.3203963837        1.4489245818        0.3276452803
 C          2.3591512791        0.1237840314       -0.1420761806
 C          3.4914535578       -0.3657460522       -0.7513118556
 C          4.6027533002        0.4505743021       -0.9063889094
 S          6.1013069771       -0.2303714645       -1.5954419410
 O          5.7782964230       -1.4072106265       -2.3681872317
 O          6.8552123942        0.8124993347       -2.2496973392
 C          6.9803287462       -0.7349967342       -0.1075166385
 C          6.6721649954       -1.9507926275        0.4721796998
 C          7.2868082494       -2.3084767440        1.6601086598
 C          8.1934148073       -1.4450610906        2.2559141611
 C          8.4942631819       -0.2275336014        1.6657703490
 C          7.8813696719        0.1333024854        0.4773439999
 C          4.6021533676        1.7481778149       -0.4131684621
 C          3.4779765936        2.2423148928        0.2036848632
 C         -0.5198476598        0.8636468417       -0.4596503270
 C         -1.7971293693        0.3980285313       -0.6563677550
 C         -5.0994764978        0.9119942890       -0.1337161194
 C         -4.8237382549        2.2848006040       -0.2375096804
 C         -5.8296017288        3.1888196962       -0.4878538138
 C         -7.1336649961        2.7431594388       -0.6493902197
 C         -7.4067565121        1.3894685185       -0.5747299789
 C         -6.4136252048        0.4525443920       -0.3247257651
 H         -8.0899516377       -2.2973569158        0.8815144743
 H         -8.6933033594       -0.6588453761        0.6619469378
 H         -7.3794358703       -0.9681078174        1.7975261708
 H         -6.6137521075       -1.2540172004       -2.4332484243
 H         -7.6245727977       -2.4732943621       -1.6567605728
 H         -8.2350572422       -0.8376723836       -1.8776044048
 H         -6.6562662635       -3.7072970627       -0.0870489107
 H         -4.7596074461       -5.1550033321        0.4140809417
 H         -2.5282135503       -4.1627143375        0.8477343567
 H         -2.2342122079       -1.7352244616        0.7316639261
 H         -3.1925188182        1.3335383294        2.2902369564
 H         -0.8907479296        2.1903052219        2.6339479229
 H          1.5150864200       -0.5295166034        0.0146977808
 H          3.5356103307       -1.3782223470       -1.1208989721
 H          5.9702265500       -2.6033290758       -0.0230109269
 H          7.0587712916       -3.2578935307        2.1207345033
 H          8.6702150990       -1.7244353462        3.1836075054
 H          9.2044190174        0.4399468950        2.1300938533
 H          8.0997609676        1.0676682631       -0.0152225565
 H          5.4843540313        2.3561728889       -0.5371875570
 H          3.4552929729        3.2476488153        0.5939681709
 H          0.1984793396        0.7924633560       -1.2607719798
 H         -2.0721840019       -0.0699471064       -1.5908904314
 H         -3.8081387034        2.6283526468       -0.1243923653
 H         -5.5978287073        4.2398793365       -0.5610534169
 H         -7.9304270062        3.4440941668       -0.8428638288
 H         -8.4243147169        1.0598127953       -0.7188907122
