78
 energy: -140.172391642382 gnorm: 0.000053934433 xtb: 6.7.1 (edcfbbe)
O           -5.51918229111894        0.70681020015531       -2.53895816087865
S           -5.71509912795893        2.03908604204903       -2.01007307715317
O           -6.16609696308221        3.05573430982329       -2.93532759058000
C           -6.84933638315971        1.96084883071569       -0.62260293135883
C           -7.74136592768210        2.99418873806732       -0.41146353204082
C           -8.58714978882460        2.93976132635055        0.68492606109500
C           -8.52469371284135        1.85961501017051        1.55191826569026
C           -7.62345570247269        0.82919662559598        1.32866047662056
C           -6.77584205186208        0.87876627069836        0.23412137239582
C           -4.16496402936780        2.58422290296493       -1.27110554313602
C           -3.95409322161692        3.93320820791118       -1.04764708255271
C           -2.76898328808437        4.34388358460880       -0.45551529245148
C           -1.81454871392730        3.40924973835311       -0.09317871711276
C           -2.03666680138297        2.05019692568811       -0.31821737997490
C           -1.03054821514925        1.05624309658296        0.06286076062450
N            0.16189133156914        1.49179664528944        0.45717872486968
C            1.04665327321406        0.55439416774064        0.78690424817270
C            2.38197283235201        0.98765374543883        1.20453135970106
C            3.34746560085843        0.05299435242118        1.58052752786049
C            4.60651302833093        0.46798222877195        1.97848340953031
C            4.91725597738805        1.81932553317142        2.00270125340429
C            3.95446766251248        2.74009520641583        1.62837056202483
S            4.37108705364728        4.49302410900311        1.61755059390920
O            5.21182830915348        4.77401275041295        2.76090766235972
O            3.14470208397562        5.25093898861908        1.49956009157155
C            5.33490421438715        4.68786234559770        0.11690334054038
C            6.71092186774934        4.78098169747464        0.19365864212562
C            7.44443113877177        4.88737096267862       -0.97742434138516
C            6.79351639809655        4.89368771226178       -2.20150043358056
C            5.41107544044151        4.79898726578867       -2.26409791700573
C            4.67316364868557        4.69268648435710       -1.09654898687277
C            2.69705929367724        2.34613764599541        1.22839521376962
N            0.79154829299213       -0.75035989686732        0.75747811306420
C           -0.42982031926307       -1.09762445996167        0.36084077827117
C           -0.76259603840627       -2.52380776028527        0.33056192659738
C           -1.95449679361646       -2.96329121012986       -0.24620929279735
C           -2.26956503932596       -4.31103262993104       -0.26312685918212
C           -1.39930662089526       -5.23492760512711        0.29567543569786
C           -0.22057157428578       -4.79071032182938        0.86841322696401
S            0.92253303717507       -5.99551085720054        1.56751971775500
O            0.16227510776586       -6.97095214941353        2.31839952852165
O            1.95711191203345       -5.27865563331065        2.28069917418246
C            1.63901061244602       -6.78972509592732        0.12717469156826
C            2.49783384383413       -6.05365613730104       -0.66740620175037
C            3.03454182420554       -6.64167061151733       -1.80084000392390
C            2.70230741914419       -7.94904037029764       -2.12428453513096
C            1.83915111877672       -8.67542890366736       -1.31861002693029
C            1.29888844009551       -8.09163542306856       -0.18353839580207
C            0.11258409958495       -3.45477303361906        0.88947102692393
N           -1.36747405760828       -0.22910591398241       -0.00586469404247
C           -3.22936454297904        1.63927269856041       -0.91231899507602
H           -7.76836150805739        3.81163219393507       -1.11472795891013
H           -9.29277813282214        3.73730774593440        0.85961061984966
H           -9.18468076708807        1.81834195151556        2.40523262723182
H           -7.58112259277330       -0.01159682257191        2.00387006157159
H           -6.07236685604226        0.08865353225326        0.02481542389462
H           -4.70843824568431        4.63967523749580       -1.35558174296834
H           -2.58874345316329        5.39274409606645       -0.27857954462514
H           -0.88843057296252        3.71501427778268        0.36813824633920
H            3.09081426171252       -0.99458359513868        1.56005480266338
H            5.34546663806808       -0.26109982556878        2.27214483114229
H            5.88525350619365        2.17169585101517        2.32163222885821
H            7.17993991146156        4.78292316191544        1.16519228542561
H            8.51981903012291        4.96568374208742       -0.93319481298576
H            7.36624810480017        4.97633387232859       -3.11283799211751
H            4.90831555047999        4.80865936617023       -3.21898981214541
H            3.59656422712482        4.62873513438519       -1.10876866765159
H            1.96400064379788        3.08613580612200        0.95146299648399
H           -2.62186518227517       -2.23350363706606       -0.67722452445847
H           -3.19355566778977       -4.64199926153326       -0.71092141088161
H           -1.62626509095671       -6.28907537231012        0.30870020837042
H            2.74316787666343       -5.04276543650965       -0.38234903685888
H            3.70959076266164       -6.08148380858216       -2.42932357825865
H            3.12154820276294       -8.40473524487847       -3.00855124724625
H            1.58582572952873       -9.69338517399373       -1.57173892984062
H            0.62870860966364       -8.62544420886148        0.47211718884704
H            1.03301359245102       -3.13847343916850        1.35295039506619
H           -3.41314323582180        0.59630452088695       -1.11166685188254
