  62
        -94.69535539
 C         -5.2583030784       -2.7807072422       -3.1506283422
 O         -4.4484364436       -3.3727873161       -2.1643046998
 C         -3.3819294402       -2.6711439266       -1.6874840499
 C         -2.6203732620       -3.3097042291       -0.7014887513
 C         -1.5172011945       -2.7027640836       -0.1595710955
 C         -1.1151921347       -1.4122642581       -0.5685335221
 C         -0.0021918502       -0.7357617219        0.0124504249
 C         -0.0038573749        0.7392873477        0.0049098937
 C         -1.1169384428        1.4141706768        0.5835873936
 C         -1.9396664201        0.7641987865        1.5254347562
 C         -3.0449840896        1.3744437156        2.0723816662
 C         -3.3947389674        2.6686151788        1.6882117956
 O         -4.4662389841        3.3673163257        2.1578658713
 C         -5.3116432892        2.7523136688        3.0994106943
 C         -2.6079050886        3.3226013309        0.7323439318
 C         -1.5009752806        2.7175790412        0.1964342882
 C          1.1110530476        1.4078370364       -0.5818880142
 C          1.9112021876        0.7576847233       -1.5416136996
 C          3.0143431773        1.3614114566       -2.1007329343
 C          3.3859717621        2.6464472014       -1.7070567508
 O          4.4579389159        3.3379505483       -2.1861814562
 C          5.2715523952        2.7300384832       -3.1596469102
 C          2.6235414340        3.2982189726       -0.7303764840
 C          1.5164753743        2.7009879487       -0.1852800733
 C          1.1120476846       -1.4039116508        0.5970418382
 C          1.4988766698       -2.7091839749        0.2191708780
 C          2.6079027871       -3.3073771027        0.7582657871
 C          3.3937115569       -2.6444118362        1.7087529530
 O          4.4676634923       -3.3367038256        2.1818919413
 C          5.3103578516       -2.7139603359        3.1205259237
 C          3.0404292854       -1.3488057153        2.0847545926
 C          1.9332042502       -0.7452953737        1.5341750192
 C         -1.9160397849       -0.7741749982       -1.5357228342
 C         -3.0149794777       -1.3881339624       -2.0920916282
 H         -5.7247812504       -1.8588896709       -2.7879409273
 H         -6.0328985868       -3.5126018736       -3.3739657553
 H         -4.6897410689       -2.5656169440       -4.0613675162
 H         -2.9330796263       -4.2889454939       -0.3730087342
 H         -0.9774504417       -3.1969763309        0.6330255343
 H         -1.6786431702       -0.2334898923        1.8433920744
 H         -3.6327071060        0.8358395313        2.7996033944
 H         -5.7724237982        1.8457397762        2.6935764609
 H         -6.0878454976        3.4833009475        3.3199746339
 H         -4.7748536855        2.5052046656        4.0211551408
 H         -2.9050522397        4.3122808858        0.4212152883
 H         -0.9428192289        3.2248207305       -0.5746954814
 H          1.6328355900       -0.2336433601       -1.8653319170
 H          3.5829240609        0.8247638680       -2.8442851599
 H          4.7088931277        2.5084533568       -4.0723133020
 H          6.0521555955        3.4547583812       -3.3852517129
 H          5.7294582174        1.8095055596       -2.7833105383
 H          2.9390266930        4.2795231268       -0.4109043875
 H          0.9764342981        3.2054488268        0.6007193836
 H          0.9415428928       -3.2232691928       -0.5480204619
 H          2.9074318379       -4.2984733969        0.4538595719
 H          6.0889048638       -3.4409824755        3.3449823792
 H          5.7677782068       -1.8078084712        2.7106612155
 H          4.7725256065       -2.4640881657        4.0406772565
 H          3.6269105207       -0.8037736713        2.8081069134
 H          1.6701826653        0.2541482850        1.8446789796
 H         -1.6410390878        0.2152091276       -1.8679157687
 H         -3.5834838645       -0.8615158738       -2.8428648324
