  74
        -85.43486124
 C          9.3797059558       -0.9212284516       -0.4949763790
 C          8.2609845239       -0.1594785980        0.2136532517
 C          8.6615592964        1.3038577508        0.3875807019
 C          6.9539248917       -0.3026520247       -0.5732160264
 C          5.7340438348        0.2560430270        0.1550975719
 C          4.4445707457       -0.0456421926       -0.6067097062
 C          3.1970158401        0.5404488539        0.0752699407
 C          3.1213509506        2.0361597643       -0.2299976017
 C          1.9401938244       -0.2133562877       -0.3886276639
 C          2.0104867247       -1.7207677183       -0.0303371442
 C          0.5787515391       -2.1791176691        0.2988184205
 C         -0.2798187318       -1.0084362140       -0.1673894916
 C         -1.7213189035       -0.9450036491        0.3229317297
 C         -2.4802536183       -2.1919923381       -0.1278878672
 C         -3.9572753724       -2.0269436429        0.0076938360
 C         -4.5796793818       -0.8688873927        0.1737836664
 C         -6.0754806305       -0.8284047673        0.3276754672
 C         -6.7150798974        0.1438174966       -0.6683480299
 O         -8.1232319874        0.1705790905       -0.5484481691
 C         -6.0882055763        1.5234688226       -0.4804897676
 C         -4.5834824758        1.4482142948       -0.7094973900
 C         -3.8564796363        0.4623617491        0.2289033817
 C         -3.9021143929        0.9907027056        1.6710509943
 C         -2.3964281668        0.2994836124       -0.2731807097
 C         -1.5516410370        1.5580822760       -0.0363535214
 C         -0.1000789630        1.4142738738       -0.5010755614
 C          0.5701129496        0.2246418723        0.1867058018
 C          0.6797039802        0.4539688483        1.6953230695
 H          9.5517624105       -0.5044335971       -1.4848846654
 H          9.1207488035       -1.9717080362       -0.6061264935
 H         10.3063448752       -0.8552117016        0.0701114071
 H          8.1152670931       -0.6005632268        1.2060503219
 H          9.6157103198        1.3745336432        0.9056205087
 H          7.9215623698        1.8472303256        0.9689954348
 H          8.7624410072        1.7858450863       -0.5831716020
 H          7.0603247277        0.1999573510       -1.5367356252
 H          6.7841601026       -1.3634904226       -0.7718304000
 H          5.6740215617       -0.1906700010        1.1503708244
 H          5.8469202555        1.3314998976        0.2786733147
 H          4.3494833406       -1.1263395880       -0.6894192993
 H          4.5187690238        0.3579893996       -1.6183587799
 H          3.3089909649        0.4086930915        1.1533593297
 H          2.8195563965        2.1971648308       -1.2623474154
 H          4.0929890244        2.5007979771       -0.0837112687
 H          2.4155913282        2.5409959492        0.4211505349
 H          1.8852417626       -0.1140356265       -1.4766527358
 H          2.6706927703       -1.8753714807        0.8219936304
 H          2.4085790000       -2.2957431649       -0.8656460585
 H          0.3257315012       -3.1070370994       -0.2122562069
 H          0.4512986277       -2.3411621524        1.3684907458
 H         -0.3197436376       -1.0521733066       -1.2614620218
 H         -1.7495580808       -0.9030661445        1.4123457449
 H         -2.2454037309       -2.4056247256       -1.1762886837
 H         -2.1586182535       -3.0591106312        0.4533594625
 H         -4.5340064341       -2.9420371539       -0.0424048686
 H         -6.3402067847       -0.5061149326        1.3393963525
 H         -6.4917691249       -1.8258732849        0.1799637367
 H         -6.5330364829       -0.2074031000       -1.6885548168
 H         -8.3456141454        0.4743641925        0.3397069653
 H         -6.3035806379        1.8854321128        0.5267759192
 H         -6.5332579713        2.2242795284       -1.1900608422
 H         -4.1589578442        2.4440205203       -0.5846530394
 H         -4.4120319414        1.1342434370       -1.7406802460
 H         -4.9057473183        0.9185881481        2.0768334566
 H         -3.6011418784        2.0337916565        1.7108407392
 H         -3.2463385592        0.4070300147        2.3106881554
 H         -2.4502646117        0.1337256058       -1.3546251152
 H         -1.5454167839        1.8043534955        1.0214793236
 H         -1.9976357190        2.3973865773       -0.5720854772
 H         -0.0764663613        1.2616192501       -1.5821868886
 H          0.4204834845        2.3454858207       -0.2854018851
 H          1.2643617971       -0.3323172999        2.1596419349
 H         -0.2974208143        0.4707633471        2.1645116796
 H          1.1651060519        1.4052134034        1.8963737641
