73
 energy: -114.219691265825 gnorm: 0.000034791579 xtb: 6.7.1 (edcfbbe)
C          -10.18787328870128       -1.16671922418383       -0.10467076446438
C           -9.51309572231532       -0.87578219022411       -1.27851956296694
C           -8.15228503217993       -0.62933410272621       -1.25497789925236
C           -7.44900822530307       -0.67614091331462       -0.05536146072325
C           -5.99366280795850       -0.41557706332875       -0.02951899892943
C           -5.10138467280458       -1.46760764519869        0.21989392161234
C           -5.55405040056609       -2.79788037129059        0.42374894086769
C           -4.68120781123718       -3.80756141895363        0.68828885380998
C           -3.29855012527024       -3.54822028524998        0.77119901200366
C           -2.82190746198824       -2.29126875706913        0.56102194288263
C           -3.69514087621904       -1.21324390845916        0.25871063808953
C           -3.21477877886983        0.08174568913244        0.01842416317061
C           -1.76045942996418        0.34192092453242        0.04341891097210
C           -1.19451012261633        1.10099404712893        1.06371413449165
C            0.16550404807403        1.33850424350135        1.09531379669057
C            0.98524379707996        0.83131224163292        0.09137925550748
N            2.36562521396972        1.07802257397141        0.11563172671877
C            2.96084714894594        2.31622775308943        0.25507917700898
C            2.38054447698950        3.57200187298741        0.36039184838067
C            3.22162831540749        4.66303452979647        0.46543600579031
C            4.60790502091061        4.51883381695944        0.45831865708385
C            5.19291683382350        3.27564019395609        0.33068771620619
C            4.36618778384460        2.16441751789609        0.22368920418515
C            4.61572861273398        0.76353415516221        0.06209950687676
C            5.75876270507709       -0.02022020765813       -0.02310444941800
S            7.41395811033108        0.53084774936110        0.02440718078988
C            7.98884025836813       -1.11419334426605       -0.14590364130404
C            9.31554894848564       -1.50599920806602       -0.19484820250800
C            9.59980556371931       -2.85105468019446       -0.33294842849272
C            8.57395769801087       -3.78713524264779       -0.42039923811126
C            7.25249079504654       -3.39404615905498       -0.37132171412259
C            6.93912318646304       -2.04455216514309       -0.23252380362225
C            5.64817301430073       -1.41234652268504       -0.15975228235694
C            4.38456989634013       -2.01301770861889       -0.19528861031146
C            3.23664764630812       -1.25775235196093       -0.11496949769155
C            3.35542971789476        0.12677698982106       -0.00333278801993
C            0.42529644577877        0.07925991049244       -0.93729062453322
C           -0.93320323438295       -0.16804223544876       -0.95307630172115
C           -4.10599623736308        1.13123468640454       -0.24562540475678
C           -3.65097778066229        2.44674682458258       -0.52571659520150
C           -4.52652042691334        3.46163106486508       -0.75959567677593
C           -5.91530538368499        3.22515049277308       -0.72390496284954
C           -6.39236004939562        1.97405762516063       -0.48207207334864
C           -5.51366039344661        0.88203703772344       -0.25521171383264
C           -8.13369742776724       -0.97156368218298        1.11925915711744
C           -9.49544245867034       -1.21278283776905        1.09377378725124
H          -11.25081275574145       -1.35710216157998       -0.12384312564046
H          -10.04898090356981       -0.84004570827070       -2.21591863841694
H           -7.62271241977314       -0.40405647256930       -2.16980594770895
H           -6.61384262116211       -2.99600112774486        0.36244037419419
H           -5.04085316460457       -4.81454095229114        0.84096733820374
H           -2.62118856696570       -4.35778561399464        1.00064973896192
H           -1.76214291443309       -2.09362078567908        0.62594207680734
H           -1.82880789838659        1.49342268693106        1.84525095485922
H            0.60215211635012        1.90594387035035        1.90352874098576
H            1.30816884637832        3.69643357514882        0.35025434065223
H            2.79445717695538        5.65128734936031        0.55175276642026
H            5.22952990231881        5.39730339967936        0.54545345861631
H            6.26586930533212        3.15965338847027        0.30923731452195
H           10.10384654116498       -0.77226827922594       -0.12621127923914
H           10.62803440511229       -3.17773480180115       -0.37340412356594
H            8.81746431117308       -4.83375292640654       -0.52808530616591
H            6.46045179256694       -4.12455961770241       -0.43990806497017
H            4.31607009995177       -3.08643514355386       -0.28312174462719
H            2.26589914954823       -1.72889061409983       -0.12603443919833
H            1.05771579056656       -0.29668421979252       -1.72768280878549
H           -1.36612804369456       -0.75026937249497       -1.75354842080896
H           -2.58687882316229        2.62905933203464       -0.55434604109318
H           -4.16453325743797        4.45698230143349       -0.97186881494028
H           -6.59640444932096        4.04587757206063       -0.89466093449161
H           -7.45653352425649        1.79217834897082       -0.45702339799071
H           -7.59116757660014       -1.00484149078229        2.05343614562858
H          -10.01795625898349       -1.43811837686088        2.01211849693711
