  73
       -114.21960579
 C        -10.1876458044       -1.1677787634       -0.1243246250
 C         -9.5027304461       -0.8875774544       -1.2949385275
 C         -8.1422793663       -0.6407846096       -1.2617749991
 C         -7.4492119681       -0.6768954099       -0.0557939912
 C         -5.9939416988       -0.4157002281       -0.0228296139
 C         -5.1016284150       -1.4662648147        0.2322773651
 C         -5.5544730971       -2.7948793152        0.4462598205
 C         -4.6812935289       -3.8037074209        0.7132400944
 C         -3.2979151121       -3.5453018540        0.7872178413
 C         -2.8213720441       -2.2895644648        0.5692243555
 C         -3.6952101453       -1.2120053782        0.2667036752
 C         -3.2152159060        0.0824221597        0.0224169375
 C         -1.7608613775        0.3424725951        0.0431609141
 C         -1.1925819064        1.1044324258        1.0600133149
 C          0.1674570105        1.3416900111        1.0881739670
 C          0.9853185156        0.8320663483        0.0837960738
 N          2.3656903359        1.0784183301        0.1059695498
 C          2.9612723140        2.3155715683        0.2541957354
 C          2.3817358577        3.5715010983        0.3632554629
 C          3.2233135572        4.6613144483        0.4775400431
 C          4.6094295424        4.5159948272        0.4751818985
 C          5.1938325294        3.2729965667        0.3429050073
 C          4.3666148470        2.1630065209        0.2272500918
 C          4.6159143983        0.7628210978        0.0595853702
 C          5.7590527332       -0.0209058794       -0.0240320739
 S          7.4142644724        0.5289222054        0.0361976350
 C          7.9894196068       -1.1153754263       -0.1401529485
 C          9.3162033407       -1.5076191900       -0.1836005526
 C          9.6004888754       -2.8518173434       -0.3299768022
 C          8.5746026542       -3.7864720048       -0.4313824800
 C          7.2531357422       -3.3928982570       -0.3875949228
 C          6.9397171620       -2.0444330861       -0.2398829468
 C          5.6486208625       -1.4121188528       -0.1695919122
 C          4.3848947576       -2.0120230379       -0.2136610706
 C          3.2368841836       -1.2568466871       -0.1330195418
 C          3.3555316900        0.1271169033       -0.0141280073
 C          0.4228528620        0.0778294032       -0.9419158698
 C         -0.9356620637       -0.1698939752       -0.9537490087
 C         -4.1069515573        1.1316782530       -0.2411541226
 C         -3.6529465747        2.4476351984       -0.5206865477
 C         -4.5291751429        3.4615988255       -0.7561305614
 C         -5.9177922277        3.2234207906       -0.7243463176
 C         -6.3938519844        1.9719481525       -0.4826420234
 C         -5.5143541179        0.8814612742       -0.2517362691
 C         -8.1438788643       -0.9617334298        1.1155834247
 C         -9.5055524561       -1.2031912395        1.0803982755
 H        -11.2505497726       -1.3575642473       -0.1510150596
 H        -10.0304815462       -0.8600158526       -2.2372720137
 H         -7.6046073164       -0.4241665835       -2.1737341713
 H         -6.6148166199       -2.9923366021        0.3910258759
 H         -5.0411388478       -4.8093044497        0.8743353535
 H         -2.6199431640       -4.3544979073        1.0163599328
 H         -1.7611631176       -2.0926098501        0.6282101903
 H         -1.8250182307        1.4986404987        1.8421169103
 H          0.6058318507        1.9102858037        1.8946077460
 H          1.3096209820        3.6973704726        0.3487888057
 H          2.7965442591        5.6495200484        0.5670048852
 H          5.2313921434        5.3934292430        0.5696970149
 H          6.2667309796        3.1561981498        0.3247640741
 H         10.1045440358       -0.7750295907       -0.1031894768
 H         10.6287617954       -3.1788939596       -0.3664112418
 H          8.8180886937       -4.8322971352       -0.5463442856
 H          6.4610989592       -4.1222866200       -0.4668326187
 H          4.3163079492       -3.0848837112       -0.3076127229
 H          2.2662514466       -1.7280268702       -0.1495684081
 H          1.0530478985       -0.2997058243       -1.7332755064
 H         -1.3701737641       -0.7544328487       -1.7516800144
 H         -2.5890330933        2.6313576514       -0.5472763386
 H         -4.1678054618        4.4573977636       -0.9674005283
 H         -6.5994818212        4.0430474315       -0.8979540039
 H         -7.4578445222        1.7885848230       -0.4603301715
 H         -7.6094776113       -0.9871591714        2.0547787088
 H        -10.0360093862       -1.4200220075        1.9960894164
