73
 energy: -114.219573214895 gnorm: 0.000061010115 xtb: 6.7.1 (edcfbbe)
C           -9.65423490518006       -1.20618569403848       -0.31708035765035
C           -8.83722838117891       -1.46060788775261       -1.40593650999028
C           -7.48145359111877       -1.19644078802365       -1.33404642731554
C           -6.92600162979586       -0.67813629447511       -0.16846444159893
C           -5.47582778241030       -0.39911880387639       -0.09036189675333
C           -4.65134859747037       -1.21143685281058        0.70058292730098
C           -5.16598648200859       -2.32266600701444        1.41913446877892
C           -4.35470230827562       -3.11167644251435        2.17456150927856
C           -2.97282490946279       -2.84569698996062        2.24911507951221
C           -2.43725981226228       -1.79854904910875        1.56511985595240
C           -3.24907705062594       -0.94313722971168        0.77435002114380
C           -2.70638198992777        0.12828776264190        0.05174430811185
C           -1.25477617347347        0.39992349631633        0.12358693618074
C           -0.69017509586245        0.92970264271732        1.27997275437145
C            0.66713118329309        1.17417409755728        1.35403311080289
C            1.48571971671090        0.89508253457686        0.26378585654337
N            2.86506486418218        1.14037602330154        0.33596624996257
C            3.45392001142485        2.32954077455564        0.71733161774953
C            2.86653483959552        3.53622508863853        1.06893297698364
C            3.70188117687888        4.58979388333199        1.38671847151997
C            5.08895815574285        4.45758200576350        1.35067200926632
C            5.68074743335977        3.26707341478347        0.98111677273425
C            4.86002516318701        2.19405659479953        0.65733464533639
C            5.11658601044539        0.85345743929402        0.22385199399746
C            6.26318417265354        0.10628468798460       -0.01113839566658
S            7.91596320475332        0.64386859696693        0.14731423072561
C            8.49824189887468       -0.93422490795864       -0.33877418325629
C            9.82667943327806       -1.30427978788895       -0.45871662432296
C           10.11686595547490       -2.59577092826188       -0.85483072632592
C            9.09516547293628       -3.50065158316491       -1.12608415592754
C            7.77196327796142       -3.12928993414098       -1.00597123055970
C            7.45265616208297       -1.83371654993761       -0.60829824918641
C            6.15884057581915       -1.23272420412667       -0.41750255176901
C            4.89798314182204       -1.81989716909455       -0.57356425686231
C            3.74654750820532       -1.09982135617265       -0.34936680469006
C            3.85939947565622        0.23603519688020        0.03296059112370
C            0.92723520497787        0.37107873914138       -0.89826885448441
C           -0.43014466457718        0.12474654854446       -0.96308273210802
C           -3.52992711832423        0.94043987405686       -0.73966327726825
C           -3.01408443013541        2.04841905247094       -1.46237993799052
C           -3.82603706471498        2.83954467833603       -2.21478713857352
C           -5.20950855782416        2.57951218171931       -2.28141643609328
C           -5.74551037846339        1.53368938007292       -1.59558260556812
C           -4.93289507742161        0.67466897949492       -0.80963951952304
C           -7.75308902328768       -0.42719030271767        0.92174760787468
C           -9.10935139760762       -0.68798246838669        0.84584395435752
H          -10.71303703863248       -1.41126099078723       -0.37469201565581
H           -9.25773649935795       -1.86592687844694       -2.31480946816030
H           -6.84103798001406       -1.39609961347260       -2.18146633375700
H           -6.22217495881218       -2.53648374325022        1.34909677736995
H           -4.76136410393216       -3.95337405182869        2.71570523492080
H           -2.34190759105306       -3.48704357273359        2.84697149447484
H           -1.37552199705757       -1.60556034193658        1.60974994902619
H           -1.32452864751679        1.14638010501850        2.12719611038474
H            1.10280338132554        1.56827903287314        2.26003215653268
H            1.79334698125616        3.65337541885982        1.08452871117883
H            3.26949080481652        5.53918761378257        1.66644077036696
H            5.70586226308965        5.30527746092766        1.60869119167585
H            6.75430439683341        3.16350627139569        0.93747989147065
H           10.61182870268575       -0.59521758561403       -0.24598732920941
H           11.14655351222950       -2.90469666614893       -0.95445901800810
H            9.34329598413764       -4.50550134853988       -1.43434616751964
H            6.98307370354697       -3.83528947494779       -1.21789857667910
H            4.83443561187559       -2.85545773784334       -0.87056756489071
H            2.77761940380973       -1.56295040290588       -0.45558028515630
H            1.55997254345948        0.17083717325250       -1.75012327981895
H           -0.86193776149999       -0.28433291110250       -1.86495536282863
H           -1.95650805426343        2.25826648818694       -1.39838471631729
H           -3.41858894807104        3.67874448333993       -2.75933448854402
H           -5.84095664236368        3.22418111853654       -2.87501876973258
H           -6.80801778366506        1.34439511346540       -1.63375385997774
H           -7.32556182726944       -0.02079649411181        1.82738188832106
H           -9.74317507344154       -0.48680190877323        1.69728442441264
