73
 energy: -114.156389872473 gnorm: 0.000056560950 xtb: 6.7.1 (edcfbbe)
C          -10.19184783989928       -1.19147287030200        0.02166984765243
C           -9.62597516187730       -0.45394425427060       -1.00592098014791
C           -8.26819683841102       -0.19932927266239       -1.01505946494996
C           -7.44466483788897       -0.68830977108077        0.00138938714286
C           -6.00451881075010       -0.42478079998726       -0.00757361337155
C           -5.08403312275499       -1.51782619003763       -0.01161335974048
C           -5.52057783118833       -2.84290573943157       -0.08133814864398
C           -4.62616239437418       -3.90860804389623        0.00102420533719
C           -3.28181963739803       -3.66182225789232        0.16628302286756
C           -2.81507040245516       -2.34795436245687        0.18712603802013
C           -3.68169937984663       -1.26302586752517        0.04349795607723
C           -3.20317488193177        0.08555276853617       -0.01107263479250
C           -1.76983044938779        0.34730384801621       -0.00578933214125
C           -1.19747062617399        1.20725548274072        0.93924180148723
C            0.15930594522101        1.44502230108392        0.95688812342705
C            0.99001760924303        0.84432959435834        0.01221733601945
N            2.36801578414414        1.09080553852469        0.02324040692440
C            2.96457634339233        2.33579540666496        0.07043572368776
C            2.38576031038351        3.59671870314508        0.07071614527353
C            3.22803725932254        4.69184504362761        0.09474950349470
C            4.61391588326260        4.54592132584283        0.10906287136135
C            5.19780019456924        3.29551988227691        0.08380010952667
C            4.36992564138188        2.18068040416899        0.05964417069847
C            4.61852250399882        0.77088783193867        0.00892286163627
C            5.76113540335323       -0.01741217431777       -0.00535069409228
S            7.41639177771595        0.53456288547207        0.01165605935185
C            7.99049163304426       -1.11926667264398       -0.02237699337909
C            9.31705516304677       -1.51444697648563       -0.02900801771262
C            9.60071204319726       -2.86644410320833       -0.05726593361089
C            8.57448362368059       -3.80599964470647       -0.07847236269843
C            7.25314719831316       -3.40957338054423       -0.07171421185785
C            6.94035888359088       -2.05301982081503       -0.04328000065558
C            5.64973846687916       -1.41641319838827       -0.03147630776178
C            4.38569370680274       -2.01702367692383       -0.02726715951362
C            3.23810760674737       -1.25689541356331       -0.01569038781848
C            3.35766484678158        0.13215958454466       -0.01524071648686
C            0.43246914705236       -0.00371858354541       -0.94349163652453
C           -0.92211678145698       -0.25434687228611       -0.94358533083594
C           -4.12693846557461        1.17827319182094       -0.06839613178867
C           -3.69796999716223        2.49836733584308       -0.21655480130006
C           -4.59763470626211        3.56366140009067       -0.19866899912139
C           -5.94251346769339        3.32149563784534       -0.03076338272440
C           -6.40413770025142        2.00939524433567        0.05752838672420
C           -5.52900207072896        0.92269442737552       -0.01003285843470
C           -8.02693016793683       -1.43516231627607        1.02797701419242
C           -9.38672637137337       -1.67823032814442        1.03903590311381
H          -11.25404463410869       -1.38587133557080        0.02957803623416
H          -10.24701618202014       -0.07694850279988       -1.80568746953021
H           -7.82656056596802        0.36148821264106       -1.82644106798825
H           -6.57285247126799       -3.04888056797814       -0.20372851215285
H           -4.99769565212150       -4.92113767854085       -0.05036644389631
H           -2.58115257696696       -4.47697221966357        0.26934423300430
H           -1.75940442175885       -2.17172080382288        0.32577264621588
H           -1.82898434265897        1.65500977252908        1.69251851900200
H            0.59117520033421        2.07948649687457        1.71653727279820
H            1.31392778830483        3.72149352427258        0.04121325417711
H            2.80193893256709        5.68423904135417        0.09857472151436
H            5.23658851617141        5.42766143438371        0.13053162415774
H            6.27065461486062        3.17706302897537        0.07797915333230
H           10.10566231647299       -0.77806296197562       -0.01251129315492
H           10.62881967244637       -3.19586969384736       -0.06300507911425
H            8.81762956232956       -4.85795795849327       -0.10051217802843
H            6.46081686182983       -4.14274905965359       -0.08842308428214
H            4.31638006960530       -3.09393084635096       -0.02812415453420
H            2.26720105736023       -1.72699216745560        0.00655621543900
H            1.06772262291856       -0.44482764657018       -1.69726835539140
H           -1.34836874121132       -0.89128924185871       -1.70474725526721
H           -2.64786769814150        2.70459455845587       -0.35629313985422
H           -4.22922895163086        4.57300483475229       -0.30579330106351
H           -6.64687375292958        4.13840633704051        0.01853069072924
H           -7.46125924257649        1.83214001092813        0.18294122384781
H           -7.40340947297118       -1.80161921167910        1.83100139642221
H           -9.82230547800345       -2.24892845800309        1.84650722084765
