112
 energy: -173.711028703795 gnorm: 0.000094653920 xtb: 6.7.1 (edcfbbe)
C           -1.81233628080176       -8.23848426225114        1.66456220803442
C           -2.42035922365142       -7.73002737900664        0.35480175457439
C           -3.87487983109481       -8.21644560872394        0.28066334761773
C           -1.61264484503397       -8.32136827210602       -0.80931279235000
C           -2.40200663433990       -6.21421715819175        0.25071520123754
C           -1.88728169828889       -5.39250248913316        1.24764189058507
C           -1.89081074226748       -4.01594777055038        1.12150200457647
C           -2.41707603536535       -3.42019298431545       -0.01864761069863
N           -2.39996110134397       -2.02519098438450       -0.16031962873589
C           -1.24745327487721       -1.23119933694040       -0.04558286458104
C            0.07042561236893       -1.66955479108827        0.17396753671476
C            0.62924648072685       -2.88789831330553       -0.30894603393844
C            1.97413954609264       -3.10512561348512       -0.24753182711432
C            2.85419781432300       -2.18951381877016        0.38373223416942
C            4.28463679885962       -2.24059786952065        0.28247920744795
C            5.10057230561015       -1.66718818854588        1.28588619238652
C            6.40241715488454       -1.33412679768745        1.02468704166619
C            6.93291128426363       -1.55710653428484       -0.24561097332157
S            8.14822078216314       -0.37402716867581       -0.80275449095939
O            9.13581208817261       -0.09947323429529        0.20714731601263
O            8.59722423376954       -0.69309521086711       -2.13191034480720
C            6.91984784034191        0.94514392143870       -0.82876489312809
C            5.94429305534867        0.90347546271818       -1.81127386520745
C            4.75419026046984        1.57572666629649       -1.62352087666705
C            4.51951437573157        2.29191708509767       -0.44647205884810
C            3.18232438555408        2.82593419381726       -0.15430257875066
C            2.06143669170075        2.05279968551778       -0.45833017617590
C            0.78992203345685        2.47445329036419       -0.12940275301167
C            0.60538147617719        3.70234383946743        0.50192259777325
N           -0.69188840983303        4.14313756123588        0.81155290026378
C           -1.67882426102412        3.39179732737389        1.41716161592981
C           -1.59517026189919        2.14664475202934        2.02215829314562
C           -2.75387660560222        1.59874110609792        2.53575244735275
C           -3.96826422660235        2.27782709147134        2.47495601353255
C           -4.04654331105681        3.54457795235432        1.92927051592070
C           -2.89574559661506        4.11206596420682        1.40243719549985
C           -2.61672404086408        5.36587399415913        0.75920381808352
C           -3.39730040414594        6.46674023288526        0.43796802900108
C           -2.81104649168487        7.51898140413735       -0.23956859191276
C           -1.46885027922544        7.47355547363003       -0.60890971859487
C           -0.67119328837071        6.38774447648658       -0.29979240049039
C           -1.24772917014127        5.33882861844692        0.40288630948093
C            1.71528772410309        4.49013850783683        0.79980483212165
C            2.98631445216638        4.05136371190582        0.48148509280666
C            5.55034618389405        2.40011215206744        0.48803378497006
C            6.73889404354899        1.71874617501495        0.30477151050428
C            6.20160455425905       -2.27539103813570       -1.18744806826389
C            4.90982890487681       -2.65593010420407       -0.91224065445125
C            2.26956813157953       -1.05158960979281        1.00016716077936
C            0.95015505099800       -0.77601192803058        0.85032500754867
N           -1.54632671927484        0.06926955334124       -0.22500974689716
C           -2.84708697652569        0.12940944522622       -0.47976572257919
C           -3.62011768890663        1.26444588921930       -0.86571246943926
C           -3.01118864517539        2.46170066878291       -1.24550510396278
C           -3.76993294927497        3.53764007416595       -1.65192905722464
C           -5.15256983329610        3.42100504929476       -1.67073691867585
C           -5.76550692083336        2.23379423461543       -1.32125820268734
C           -5.02548846562142        1.11572459804549       -0.92073728025278
C           -5.64278038807718       -0.15915779147638       -0.59093788657655
C           -7.02749063310055       -0.29846252508761       -0.49305656028814
C           -7.62677982045895       -1.50590625908698       -0.19775475566095
C           -6.84357262631594       -2.63769996963649        0.02734645657439
C           -5.47917873332237       -2.54811295577145       -0.04933220334648
C           -4.84175586288492       -1.32610118112468       -0.35973886666338
C           -3.44539934840572       -1.16416442678108       -0.38251224544041
C           -2.92963831095729       -4.22755342698337       -1.03164718839508
C           -2.92069673150582       -5.59906992818209       -0.88876872458189
H           -0.77067356872520       -7.93955003488252        1.75533671997986
H           -2.36698847980409       -7.86938424789077        2.52419027659162
H           -1.85162151647444       -9.32555148188962        1.68276400835813
H           -4.34003090704590       -7.93885249993396       -0.66115625668526
H           -3.91125731755695       -9.29971720455452        0.37132861769787
H           -4.45818818012847       -7.78309618481254        1.09065105040010
H           -2.04050361490618       -8.04919347035028       -1.77014258027274
H           -1.59785839360164       -9.40669875331446       -0.73961103570342
H           -0.58694751409848       -7.95982852674398       -0.77701160809710
H           -1.47403573003465       -5.81481632807850        2.14821759161433
H           -1.48685192063500       -3.39617931008690        1.90809289374726
H           -0.00528118223431       -3.60408984603318       -0.80860832038091
H            2.38572315023964       -4.00682038258026       -0.67721227602322
H            4.67850144532155       -1.47107586371229        2.25990346565692
H            7.02102535373133       -0.84986724495978        1.76434343379561
H            6.12281568462819        0.31476871123255       -2.69765874355456
H            3.98655914729485        1.53205846008554       -2.38159980169129
H            2.18925847643194        1.09176920372276       -0.93247106953278
H           -0.05751364921886        1.84241439787810       -0.35328799344540
H           -0.65544850620449        1.62394745206656        2.09135986549474
H           -2.71757313326546        0.62178696925491        2.99529261710662
H           -4.85610188317018        1.80975485711223        2.87378512370559
H           -4.98259370086580        4.08145594395492        1.90506890569255
H           -4.44210955128713        6.49241298759235        0.70793192873103
H           -3.40014675892699        8.38641176698456       -0.49730629517061
H           -1.04245975902724        8.30343288224177       -1.15266393690615
H            0.36257184951722        6.35450538644643       -0.60827019665118
H            1.57805388624115        5.43629598815625        1.30233661595674
H            3.83735087145619        4.67274045851922        0.71809075350166
H            5.39280378645442        2.96884818738621        1.39267711909437
H            7.52505020133588        1.74842379350176        1.04320099876500
H            6.65471676648305       -2.47524950763185       -2.14624858579200
H            4.32768724734508       -3.16492171753046       -1.66559945797510
H            2.90647540540304       -0.34817955291187        1.51496091305183
H            0.52828112168277        0.12441840821460        1.26186710686762
H           -1.93489238550024        2.51193697063785       -1.24470218274778
H           -3.29599696612030        4.45922360578024       -1.95379304248459
H           -5.75765211848164        4.26058679146937       -1.98025512186879
H           -6.84063049396726        2.18051842445737       -1.38520869892494
H           -7.66383601611262        0.55990281369785       -0.63731997694420
H           -8.70221799375023       -1.57136888617588       -0.13124389472355
H           -7.31148690451258       -3.57953153255308        0.27197690872800
H           -4.87733127711183       -3.41865119236101        0.15504647538407
H           -3.33056467408854       -3.77096513676293       -1.92520361664316
H           -3.32367195394312       -6.19753454493801       -1.69125924842593
