112
 energy: -173.799163170746 gnorm: 0.000084563529 xtb: 6.7.1 (edcfbbe)
C           -1.48546528960405       -7.99352792889312        1.71997481768446
C           -2.24880008135537       -7.55423420578736        0.46779058736130
C           -3.69065919406102       -8.06946603453082        0.57954166440027
C           -1.56400782062447       -8.18118498690771       -0.75515250292592
C           -2.27428285949854       -6.04426401638404        0.29702998469296
C           -1.66090721168825       -5.17112406099422        1.18718972076079
C           -1.69888882468713       -3.80112578765484        0.99552107574929
C           -2.35909699113984       -3.27078399795463       -0.10238461333086
N           -2.34000251184293       -1.88403524453594       -0.33986636697212
C           -1.18496631989919       -1.16364343090722       -0.50492949204896
C            0.16731729975903       -1.66946458857087       -0.28607750365972
C            0.71398164124726       -2.74329733553964       -0.98275428464060
C            2.06154531797449       -3.03477631682038       -0.86549373006888
C            2.88323324410897       -2.27896831943500       -0.03340361678439
C            4.35129029567708       -2.32094769371488       -0.04800896218613
C            5.07651338168363       -2.11673664984817        1.12809964320439
C            6.38644267026783       -1.68768781711375        1.06997169129430
C            6.98381537325318       -1.48744893356814       -0.16286933608448
S            8.22481621813328       -0.18985016675191       -0.26033176926833
O            9.04372726795497       -0.15828333583971        0.92039968849246
O            8.86520682725024       -0.19374893494063       -1.54679736729115
C            6.95115517626788        1.08568964500272       -0.17425990498019
C            6.16330951762352        1.28315868680673       -1.29441748185419
C            4.93468962923634        1.89999893271792       -1.16553587871367
C            4.48390271266079        2.32663553410480        0.08460801785611
C            3.09619423367057        2.78691216219672        0.25310771979510
C            2.06757882008974        2.02923541358206       -0.30529631715051
C            0.74399282268821        2.36486422770255       -0.10599727583369
C            0.41995149742059        3.49501518534736        0.64065228002385
N           -0.92602577477586        3.84343629104391        0.83321199124781
C           -1.92452423522191        3.00018418405836        1.27810209670929
C           -1.83131952287145        1.71406298680423        1.78556318601306
C           -2.99820041724079        1.08208054181383        2.16801083406822
C           -4.23337537306175        1.71785162834933        2.07189411697161
C           -4.32748118322704        3.01664174822917        1.61387948835744
C           -3.16800718762258        3.66913373516001        1.21861359669860
C           -2.89789357171046        4.98127296588074        0.70320691053239
C           -3.70103186598388        6.07170777089138        0.39858542659030
C           -3.11061290716355        7.20096511135696       -0.13260762208418
C           -1.73874699936002        7.24732885824837       -0.37114597075275
C           -0.91838722026070        6.17536006955489       -0.07549937733527
C           -1.50371181796313        5.04512036392638        0.47594480312739
C            1.44035932186519        4.27378625383372        1.18186049410030
C            2.76285830289183        3.91364522801074        1.00038016493290
C            5.33509034315071        2.20916318630780        1.18270274576468
C            6.55745720655750        1.57227064501740        1.05789738987574
C            6.33619731941742       -1.85951974993158       -1.32762398661183
C            5.02480954844803       -2.29177712420428       -1.26943232740434
C            2.30678304728392       -1.26725664960223        0.73527789696488
C            0.97205873186718       -0.96275254200211        0.60348092610829
N           -1.41623151389781        0.07505609100631       -0.85921582974525
C           -2.77028975655326        0.19733514659296       -0.92759180160443
C           -3.52574929942701        1.34694873085560       -1.28750653641939
C           -2.90742416385136        2.51783056700319       -1.73715507944382
C           -3.65803163333357        3.61445600107181       -2.07859242110910
C           -5.04508962875752        3.55031921824141       -1.97393036533815
C           -5.66523936263485        2.40096809269812       -1.54336623229040
C           -4.93230437897272        1.25953922118298       -1.18539137136758
C           -5.55775664053252        0.03795517468568       -0.70975445771459
C           -6.94221632261438       -0.04929972535493       -0.50639066221076
C           -7.53917520092761       -1.19082449756585       -0.02603761488376
C           -6.76711926604546       -2.30452579286055        0.28916429516064
C           -5.40768031675869       -2.26284041869494        0.10157623475229
C           -4.78356610329400       -1.11550402205014       -0.40760470941556
C           -3.37619644007394       -1.00804671141595       -0.58386534684498
C           -2.97544450312283       -4.12811921699491       -1.00762374609181
C           -2.93391520728364       -5.49104151602050       -0.79979254996773
H           -0.44636739553102       -7.67523952691709        1.67779900490971
H           -1.94610691979159       -7.59418709475265        2.62056278136919
H           -1.50057504071878       -9.07909205244980        1.78960189029015
H           -4.26513217537526       -7.84295904660434       -0.31428627115029
H           -3.69152141079454       -9.14808477325873        0.71947862067953
H           -4.18908334976517       -7.61100688414529        1.43116400804822
H           -2.10475156670870       -7.96044874847507       -1.67121409543937
H           -1.51494811003585       -9.26180764986498       -0.64199071636462
H           -0.55033652576261       -7.79862462441796       -0.85577177487700
H           -1.13890083619470       -5.54494641509311        2.05209499710197
H           -1.21552667457930       -3.14011048309435        1.69967963026619
H            0.09535422518090       -3.32112808191502       -1.65426837466717
H            2.48468992014075       -3.84634055723699       -1.43924616475583
H            4.58634810732714       -2.22930074956005        2.08361581012804
H            6.93832072262986       -1.43847990807781        1.96283015949687
H            6.51295188550835        0.92265847973830       -2.24907265457617
H            4.30340640670380        2.03404057118964       -2.03110832987582
H            2.30850477050641        1.14714184513224       -0.88003402319518
H           -0.03829933137855        1.74359931201185       -0.52059440242491
H           -0.87511988968971        1.22408330822281        1.88012994560334
H           -2.95367814765024        0.07275768252854        2.55228483976041
H           -5.12518290334156        1.18557448838523        2.36852480146542
H           -5.28216332120597        3.51719221113160        1.55872347472867
H           -4.76613318649305        6.02833286563240        0.56886963144249
H           -3.71712747997833        8.06067869106481       -0.37645899472337
H           -1.30734668447579        8.13975875558125       -0.80053367988939
H            0.14137962828325        6.21408958127115       -0.27912035976235
H            1.19058086010806        5.14921236462117        1.76314618012872
H            3.54660482613339        4.51946790713113        1.43131565199612
H            5.00767275705317        2.56227518925608        2.14956556580828
H            7.20258223534711        1.41902127536426        1.90908031921557
H            6.84757130782538       -1.73823152743230       -2.26978746006161
H            4.48549764964128       -2.50505628314562       -2.18025800606350
H            2.92884683448184       -0.67192709668753        1.38718722428958
H            0.54751223464364       -0.14726438299663        1.16527483306278
H           -1.83181585405043        2.52999149898306       -1.81822680586358
H           -3.18217644170224        4.52073882122259       -2.42262860462670
H           -5.64043310755824        4.41194274089426       -2.23919625620079
H           -6.74256997514756        2.39376164255704       -1.49213017001385
H           -7.56967777664655        0.80101240370749       -0.71913723827162
H           -8.60924074428135       -1.21923839079894        0.11840955220870
H           -7.23304328953440       -3.19465212614264        0.68549045235148
H           -4.80778678919939       -3.11972915796910        0.36672789134806
H           -3.48501317118030       -3.71847974363596       -1.86784868692709
H           -3.42236851159229       -6.13140384776675       -1.51791627132419
