112
 energy: -173.794528557779 gnorm: 0.000053525712 xtb: 6.7.1 (edcfbbe)
C           -2.76482046333513        5.22642817073477        0.05774431850059
C           -2.96185401046375        4.19347839044663        1.17053675576079
C           -3.46116806708417        4.92861637941308        2.42250469735082
C           -1.60583701813643        3.53371197320180        1.45848918924284
C           -3.96565132494256        3.11449470289010        0.79828886612198
C           -4.61876387453182        3.08159654553261       -0.42911543956039
C           -5.52674576331813        2.08393396074720       -0.73402537515669
C           -5.80899714086370        1.09138820987595        0.19580931566650
N           -6.71711212232491        0.05976081798229       -0.11505092698585
C           -6.39577689700453       -1.27286669474583       -0.25149925464417
C           -5.06837379134634       -1.84441359530864       -0.10912764637516
C           -3.89382538688448       -1.17117556011061       -0.44230675891990
C           -2.66972084483494       -1.79501549888353       -0.30520908742519
C           -2.57793674460211       -3.10132761521058        0.16949192550063
C           -1.27716058096058       -3.77011067405971        0.31054018299793
C           -0.30215902209782       -3.64222778955397       -0.67989084875717
C            0.90497732153336       -4.30617943249539       -0.56672353337051
C            1.14494817216406       -5.09153397142907        0.54480275655332
S            2.69354744736166       -5.99497709805847        0.66108814061343
O            2.80162014753761       -6.53876653847062        1.98961642139086
O            2.77647773336044       -6.90237493048463       -0.45361641823177
C            3.94897386847120       -4.72821473663057        0.44909893801712
C            4.70099153902766       -4.69480201696445       -0.70888064842229
C            5.67295670767552       -3.72340459273652       -0.85979287190703
C            5.89279780286546       -2.78054422210161        0.14464129138008
C            6.93970992182381       -1.76055480473949       -0.00932694482540
C            8.17656962873014       -2.09227653790134       -0.55991772367963
C            9.16576639022027       -1.14151463245430       -0.70548503307122
C            8.94036972114404        0.17190579840545       -0.30003782035180
N            9.94102707932243        1.13813013905372       -0.44619116304028
C            9.78430604152001        2.38410685602925       -1.02317602991833
C            8.66607308455777        2.94804582246010       -1.62013186841994
C            8.79034521476299        4.21650426136669       -2.15418964798616
C            9.99703858276846        4.91075858077020       -2.10785924911689
C           11.11978608440710        4.34449306207032       -1.53815709186657
C           11.01964879124142        3.07057848098954       -0.99492772762571
C           11.96213078400699        2.19042770938041       -0.36244903040826
C           13.30701565010285        2.30742768836189       -0.03716443382734
C           13.92581376215266        1.25427922816502        0.60594375863675
C           13.21652464025872        0.10256114422077        0.93893781935358
C           11.87780319721599       -0.03693256611428        0.62596407516668
C           11.25703355623748        1.00761984162531       -0.04367706731932
C            7.70763332753377        0.51188971204101        0.25220659987042
C            6.72262251663591       -0.44426783033892        0.39379845559921
C            5.11354202370798       -2.82837799637389        1.30174605076877
C            4.14376411063345       -3.80124002358588        1.45517727319108
C            0.20287154806118       -5.21790182581287        1.54648358571489
C           -1.00814424964076       -4.56171774564600        1.42718349875805
C           -3.75572680901641       -3.77718691189965        0.48882929088413
C           -4.97981189366966       -3.16282920954150        0.34409876329964
N           -7.44602060637577       -2.00334752772733       -0.54078131686656
C           -8.49461922063657       -1.14560615030719       -0.60724490737501
C           -9.84744927844301       -1.44450244729681       -0.93173918493956
C          -10.24622864562454       -2.74823657516569       -1.24365919949543
C          -11.54934081825291       -3.01121742473601       -1.58470829559197
C          -12.47077115992623       -1.96663269569219       -1.62154875146744
C          -12.09027025785749       -0.68185300714034       -1.31144760135021
C          -10.76995323185692       -0.37395189016663       -0.94911721173202
C          -10.34361759473124        0.96623721577950       -0.58365807389954
C          -11.25159879550860        2.03251369251544       -0.51846649512458
C          -10.86880110180684        3.29518910584971       -0.13252719053615
C           -9.54805175817286        3.54476147018672        0.22536843395650
C           -8.62483783615544        2.53009398645403        0.16777682225080
C           -8.98859769483028        1.24196249840078       -0.25023142961127
C           -8.07299665141419        0.15460620557949       -0.33004258865037
C           -5.16436885453149        1.10515991961095        1.42596983221016
C           -4.25736515785152        2.10520962664502        1.71379027202518
H           -2.38269484849058        4.76072742981772       -0.84776623631663
H           -3.69574464618272        5.74068049822522       -0.16939366109261
H           -2.04133843420796        5.97181485805910        0.38119093349439
H           -3.55361171733070        4.25499254721429        3.26974608840875
H           -2.76610691714762        5.72055172001806        2.69239468864075
H           -4.43530512849670        5.37487274752687        2.23345180282058
H           -1.67238720398580        2.83177308231683        2.28502150982495
H           -0.86900801831411        4.29193412723272        1.71417106380429
H           -1.25556999088663        2.99446826354578        0.58063545825102
H           -4.42840408076200        3.83599987094536       -1.17424595630633
H           -6.02615773835935        2.07321402283351       -1.69213684617876
H           -3.93012996426126       -0.16557891855629       -0.83196708385473
H           -1.76831549124210       -1.25490851411146       -0.55608111675972
H           -0.50801201831134       -3.04359069695728       -1.55459845549851
H            1.65693017253198       -4.23315634647634       -1.33772407254101
H            4.51810232686412       -5.44123039389937       -1.46631832127664
H            6.25788609529827       -3.68373086974212       -1.76647384785848
H            8.36928660124121       -3.11064325755256       -0.86253628797403
H           10.11452767417455       -1.40622995555700       -1.14735945051972
H            7.73111252553710        2.41138818383862       -1.67938150805951
H            7.93307175182345        4.67802697785609       -2.62182775732582
H           10.05258423215117        5.90132386550258       -2.53407279708792
H           12.05984839411857        4.87474599093520       -1.51756012474768
H           13.85153522074461        3.20729440863882       -0.28026167775702
H           14.97167115929579        1.32332307676794        0.86540811224208
H           13.72302383213392       -0.69843965300250        1.45687429720570
H           11.33351989414489       -0.92612229603170        0.90636322897510
H            7.53443656190186        1.52512429392857        0.58247175104409
H            5.76612864306582       -0.16489073152657        0.81018917714152
H            5.29071257119866       -2.11542076305508        2.09303174414022
H            3.54821404025738       -3.86631769903066        2.35258834158655
H            0.43538164950870       -5.83596591410055        2.39966891435131
H           -1.74883445384493       -4.65114307216403        2.20766197506298
H           -3.70581538855922       -4.80143340199816        0.82721213791231
H           -5.89378631922081       -3.68771705497136        0.57304590317718
H           -9.49845529031550       -3.52533945001812       -1.21252704001546
H          -11.86189139078771       -4.01597384333965       -1.82792101881462
H          -13.49627351047612       -2.16712241324730       -1.89672429207565
H          -12.83822643677997        0.09377013141247       -1.35692303960565
H          -12.28781044046605        1.87003039006041       -0.76713951307615
H          -11.59775930838793        4.09129110793761       -0.09460155825361
H           -9.24987871190826        4.53026296043851        0.55158218324654
H           -7.60644342202664        2.72454790740731        0.46411009732774
H           -5.37726726815710        0.33084446847477        2.14808262702470
H           -3.77295393543244        2.09215988764484        2.67781318482478
