  96
       -152.95421947
 C          7.4879673011        1.0837922322        2.1805608863
 C          7.8196442903        0.2537314401        1.1225732516
 C          6.8466543795       -0.4904274820        0.4839864502
 C          5.5188338440       -0.4204292918        0.9041605782
 N          4.5276077752       -1.1581871617        0.2473937543
 C          4.8030456617       -2.4511902655       -0.2098767521
 C          5.6090520356       -3.3080862717        0.5392406112
 C          5.8636819086       -4.5910986434        0.0953056335
 C          5.3156189537       -5.0453284621       -1.0928612797
 C          4.5183142814       -4.1970925328       -1.8436776261
 C          4.2679535585       -2.9091646712       -1.4143669670
 C          3.2608919278       -0.6004239199        0.0487022707
 C          3.1306992452        0.7690810031       -0.1470977419
 C          1.8671261311        1.3330949809       -0.3030448015
 C          0.7182412831        0.5187547456       -0.3420639020
 C          0.8811109595       -0.8705631041       -0.1891960045
 C          2.1362818416       -1.4198451312        0.0458961440
 N         -0.2277613969       -1.6932278122       -0.2686229620
 C          0.0338045370       -3.0921818035       -0.3594148160
 C         -0.0676589931       -3.9110698965        0.7582353842
 C          0.2426741103       -5.2553498258        0.6553301568
 C          0.6595525292       -5.7834637545       -0.5553756850
 C          0.7593775159       -4.9669740696       -1.6690942112
 C          0.4464958312       -3.6228799945       -1.5743997387
 C         -1.5282162520       -1.2400036414       -0.2281462211
 C         -2.5587149722       -2.1870468409       -0.1625667200
 C         -3.8674817595       -1.7800693228       -0.0072365970
 C         -4.2001583989       -0.4199922893        0.1229696954
 C         -3.1562159471        0.5056926357        0.0032230476
 C         -1.8183342058        0.1464684167       -0.2489062520
 B         -0.6581025881        1.1233291578       -0.5363086618
 C         -0.6347946505        2.5943517559       -1.0086660238
 C         -1.7078973847        3.2657312795       -1.6062021091
 C         -1.6572331668        4.6020446209       -1.9330603614
 C         -0.5080217375        5.3286193982       -1.6473166358
 C          0.5945175811        4.6950997680       -1.1219536886
 C          0.5683337740        3.3204776658       -0.8499731008
 N          1.7341237732        2.6988728734       -0.4342430782
 C          2.8972529098        3.4790905288       -0.1710293260
 C          3.6916036613        3.9473616304       -1.2105483881
 C          4.8417041882        4.6627274477       -0.9289016873
 C          5.2056325062        4.9071621464        0.3850814321
 C          4.4140141085        4.4405783720        1.4207461614
 C          3.2604125538        3.7283442713        1.1460431713
 O         -3.4027927394        1.8217047162        0.1767151280
 C         -4.6542443460        2.3270228619        0.3104039291
 C         -4.6990184816        3.7243770792        0.3656902826
 C         -5.9083257234        4.3719985287        0.4550643484
 C         -7.0865182164        3.6325629710        0.4792749690
 C         -7.0357190395        2.2574290358        0.4408065016
 C         -5.8269241349        1.5500811690        0.3760598980
 B         -5.6357382867        0.0140271206        0.3680342019
 C         -6.6190278764       -1.1707289141        0.5605398141
 C         -7.9676554075       -1.0883055511        0.9311785617
 C         -8.7739371618       -2.1989144653        1.0496173139
 C         -8.2531007093       -3.4624789711        0.7980857607
 C         -6.9268937950       -3.5960178487        0.4569816874
 C         -6.1112399638       -2.4668177840        0.3509931679
 O         -4.8136343386       -2.7477909688        0.0468384108
 C          5.1937527513        0.4053894835        1.9807120625
 C          6.1711675418        1.1540759860        2.6050779017
 H          8.2500749802        1.6691521746        2.6720309700
 H          8.8434401892        0.1925948907        0.7836771829
 H          7.1060220703       -1.1270456796       -0.3492863273
 H          6.0270393796       -2.9613215426        1.4729931792
 H          6.4865734935       -5.2447935526        0.6881611271
 H          5.5105243679       -6.0512374287       -1.4321260213
 H          4.0952554619       -4.5379124279       -2.7770960447
 H          3.6553864862       -2.2469236926       -2.0078095043
 H          4.0179696911        1.3810433847       -0.1783093836
 H          2.2558986392       -2.4754581303        0.2295364588
 H         -0.3852096305       -3.4868631373        1.6993224879
 H          0.1647245992       -5.8907037483        1.5248547464
 H          0.9069839899       -6.8315119625       -0.6300726527
 H          1.0822747928       -5.3773261332       -2.6139397270
 H          0.5256738790       -2.9737732738       -2.4338242743
 H         -2.3518587072       -3.2434873449       -0.2142694401
 H         -2.6030961652        2.7068878091       -1.8266365390
 H         -2.5066598131        5.0868798055       -2.3918796985
 H         -0.4667747304        6.3882777396       -1.8549287606
 H          1.4913284295        5.2658699731       -0.9320661947
 H          3.4029518967        3.7430784609       -2.2312048626
 H          5.4585932116        5.0246397758       -1.7378173806
 H          6.1072743816        5.4600886261        0.6011371037
 H          4.6957571546        4.6311439357        2.4454126577
 H          2.6369230168        3.3546417888        1.9447098567
 H         -3.7664771867        4.2660333584        0.3207967644
 H         -5.9426257686        5.4507453121        0.4936256767
 H         -8.0392631563        4.1391749380        0.5286678914
 H         -7.9613476655        1.7040112689        0.4445830914
 H         -8.3868737972       -0.1185607819        1.1469241275
 H         -9.8093237726       -2.0900167068        1.3373820097
 H         -8.8808011746       -4.3373645097        0.8810399363
 H         -6.4868809154       -4.5647288082        0.2751646067
 H          4.1698999537        0.4542028368        2.3203189934
 H          5.9042144381        1.7894809014        3.4366693095
