  86
       -129.55535897
 C          2.1534564401        3.0278314073       -1.8216163466
 O          2.2171932037        1.7023927239       -1.3515021584
 C          1.2486397543        0.8132631929       -1.6676114888
 C          0.0993628028        1.1119663205       -2.3974325874
 C         -0.2345110099        2.3826440274       -2.9050273761
 N         -0.6241112414        3.3686512468       -3.3504903252
 C         -0.8735758333        0.1073315467       -2.6659329028
 C         -2.0228359299        0.4228120069       -3.5673206700
 C         -0.7431603568       -1.1106298566       -2.0678465354
 C          0.3653218256       -1.4299514230       -1.2645588352
 C          0.4323797076       -2.6596289181       -0.5547580386
 Se        -0.9686367225       -3.9032947474       -0.5736128913
 Se        -3.2016743988       -2.3077524558        0.6223144935
 C         -2.5194779615       -0.5658013585        0.5205811091
 C         -3.1573326182        0.3765842826       -0.2912651770
 C         -4.3758912861        0.0354994930       -1.0833055853
 N         -2.7551222149        1.6333456669       -0.3408158752
 C         -1.7166527587        2.0698085144        0.3595679007
 N         -1.5554329369        3.4211316492        0.3894590501
 C         -2.3773794546        4.2173827118       -0.4984285491
 C         -3.7804261133        4.4465834353        0.0839812101
 C         -3.7028508834        4.4552412014        1.6137732551
 C         -2.3674780572        5.0481028575        2.0502932407
 C         -1.2201362070        4.1181210844        1.6159923536
 C         -0.8435875634        1.1489078356        1.0307344783
 C          0.4721598522        1.4540318176        1.4796734614
 O          0.9527976664        2.6505125137        1.0737345773
 C          2.2288999809        3.0917491107        1.4726106923
 C          1.1734542356        0.5199655332        2.2402975898
 C          2.4770378581        0.7030419701        2.7401492521
 N          3.5317545375        0.7469259719        3.1964084164
 C          0.5888595438       -0.7381118226        2.5615873801
 C          1.3168159096       -1.6698582492        3.4754265370
 C         -0.6072769996       -1.0743048214        1.9988410523
 C         -1.3244357587       -0.1791911032        1.1857805554
 C          1.5565791532       -2.9032662129        0.2360926804
 C          1.6854460154       -4.1352324114        1.0687300287
 N          2.5926153489       -2.0828398918        0.2326133660
 C          2.6211700915       -0.9745920156       -0.4934620633
 N          3.8319360069       -0.3387504676       -0.5340339146
 C          4.8473112388       -0.7902171678        0.4020722812
 C          5.8413758200        0.3351681876        0.6701495142
 C          6.4813661717        0.8086263025       -0.6296751087
 C          5.3837460078        1.2131246390       -1.6074215939
 C          4.4171021560        0.0499230742       -1.8034129327
 C          1.4420540036       -0.5064836246       -1.1664633412
 H          1.2895218489        3.5558299459       -1.4115067923
 H          3.0688219806        3.5068999884       -1.4755048482
 H          2.1232704802        3.0663318425       -2.9138821117
 H         -1.6636335145        0.8015108820       -4.5239611524
 H         -2.6500132184        1.1956064246       -3.1247365031
 H         -2.6240480604       -0.4650015454       -3.7432995668
 H         -1.5044898987       -1.8654341671       -2.2086957113
 H         -5.1724756669       -0.2765192329       -0.4071471670
 H         -4.7048671547        0.9006933679       -1.6510644055
 H         -4.1757461525       -0.7951033984       -1.7576834686
 H         -2.4340083097        3.7166873778       -1.4635980442
 H         -1.8579091543        5.1693427985       -0.6333672210
 H         -4.4493411169        3.6525361826       -0.2441242693
 H         -4.1674392986        5.3973165459       -0.2841209415
 H         -3.7790015548        3.4337731115        1.9936364919
 H         -4.5304526978        5.0279937498        2.0331602292
 H         -2.3320922572        5.1689723384        3.1336301953
 H         -2.2499464913        6.0356547191        1.6013949509
 H         -0.3047861382        4.7025805891        1.4727323768
 H         -1.0397593469        3.3799488268        2.3997234755
 H          3.0141099346        2.4428080176        1.0778850844
 H          2.3130030445        3.1522724445        2.5607733036
 H          2.3348282634        4.0908271414        1.0499980739
 H          1.5804365613       -1.1654634919        4.4046828399
 H          2.2431994827       -2.0062463680        3.0111327503
 H          0.7022263799       -2.5357920722        3.7059444871
 H         -1.0331377638       -2.0514983923        2.1801861646
 H          2.6329755484       -4.1264347191        1.5988192262
 H          0.8637245142       -4.2059095769        1.7792874273
 H          1.6393592188       -5.0147768900        0.4260512635
 H          5.3709167116       -1.6694965281        0.0019416609
 H          4.3542533736       -1.0793435936        1.3289556469
 H          5.3165791650        1.1622537937        1.1509183918
 H          6.6018816777       -0.0247962315        1.3634132175
 H          7.0750850439       -0.0005539870       -1.0617729019
 H          7.1487786231        1.6507688199       -0.4395733002
 H          4.8381491404        2.0658920784       -1.2045761617
 H          5.8086032589        1.4968996292       -2.5716889146
 H          4.9751699069       -0.8095610639       -2.2100826013
 H          3.6374631796        0.3037031578       -2.5187037303
