  86
  -128.943649207000       0.214204999091394      !
 C          2.6231665434        2.7652471716       -1.6618688775
 O          2.4850765337        1.4049179339       -1.3300562519
 C          1.3759144573        0.7174404787       -1.6805291899
 C          0.3117510600        1.2348177105       -2.4169585124
 C          0.2508863898        2.5391303679       -2.9451735517
 N          0.0918155975        3.5719585648       -3.4256411310
 C         -0.8354973631        0.4387254791       -2.6956589408
 C         -1.9059073704        0.9826138756       -3.5852508980
 C         -0.9395662753       -0.7919446130       -2.1184037260
 C          0.0917701162       -1.3345948658       -1.3324090869
 C         -0.0642467051       -2.5791832057       -0.6628605196
 Se        -1.6606482990       -3.5578210110       -0.7203065683
 Se        -3.6586839768       -1.7044692849        0.5158483241
 C         -2.6284551181       -0.1393698503        0.5265032195
 C         -3.0225990035        0.9519504766       -0.2518992613
 C         -4.2716553189        0.9241906005       -1.0690220410
 N         -2.3447394918        2.0855237552       -0.2489078316
 C         -1.2436450999        2.2478816661        0.4725329189
 N         -0.7654526828        3.5227061366        0.5309789375
 C         -1.3635177707        4.5045373775       -0.3509204912
 C         -2.6809731506        5.0515919831        0.2188315147
 C         -2.6244940564        5.0302842157        1.7493913178
 C         -1.1914634911        5.2786397968        2.2070436507
 C         -0.2983282586        4.1016885556        1.7765167464
 C         -0.6248301662        1.1347699413        1.1333448193
 C          0.7142364762        1.1137824155        1.6172849099
 O          1.4716492756        2.1698080198        1.2486012571
 C          2.8177382603        2.2701207023        1.6482627048
 C          1.1556798978        0.0290959943        2.3730376895
 C          2.4514854978       -0.1093692996        2.9065332020
 N          3.4743133270       -0.3252032821        3.3859970870
 C          0.2844191652       -1.0627114963        2.6508061489
 C          0.7421305395       -2.1464093142        3.5724858909
 C         -0.9367626194       -1.1035317536        2.0449414203
 C         -1.4008240292       -0.0509583939        1.2364124680
 C          0.9983135703       -3.0487030650        0.1117459988
 C          0.9072091447       -4.3184428038        0.8904541792
 N          2.1647387932       -2.4276771756        0.1325148999
 C          2.3919932429       -1.3197540490       -0.5573536066
 N          3.6975007087       -0.9064289021       -0.5856142972
 C          4.6163523720       -1.5619786294        0.3299176560
 C          5.8065065806       -0.6496575490        0.6106873125
 C          6.5148661250       -0.2734376062       -0.6856907887
 C          5.5061636792        0.3502697991       -1.6440155295
 C          4.3383753122       -0.6076114094       -1.8533985527
 C          1.3191742355       -0.6275400957       -1.2125984250
 H          1.8185939086        3.3644487246       -1.2282874080
 H          3.5769654206        3.0744442276       -1.2353979692
 H          2.6532471388        2.9163544134       -2.7440060861
 H         -1.4830748956        1.3112849648       -4.5342442044
 H         -2.3797278561        1.8469380023       -3.1214858709
 H         -2.6612940534        0.2260786891       -3.7793823476
 H         -1.8313184732       -1.3847342579       -2.2685446162
 H         -5.1281583041        0.7472115955       -0.4176224455
 H         -4.4001571002        1.8716081044       -1.5840583014
 H         -4.2383292924        0.1120087894       -1.7932321984
 H         -1.5261041108        4.0470125989       -1.3253784781
 H         -0.6321540802        5.3089126171       -0.4646442303
 H         -3.5122361758        4.4384827346       -0.1255812641
 H         -2.8291921309        6.0689581818       -0.1445926402
 H         -2.9506729939        4.0550025356        2.1179887395
 H         -3.2943235476        5.7835148628        2.1649509382
 H         -1.1420523115        5.3790702723        3.2919082150
 H         -0.8318048747        6.2115357572        1.7699907684
 H          0.7353211177        4.4459288217        1.6614597266
 H         -0.3213070957        3.3316244645        2.5498959140
 H          3.4165752210        1.4630491733        1.2195115296
 H          2.9179416767        2.2695751868        2.7365619046
 H          3.1640565578        3.2274913726        1.2596725685
 H          1.0119865519       -1.7285069624        4.5424753318
 H          1.6275525652       -2.6388215181        3.1730040560
 H         -0.0427962923       -2.8843518555        3.7150607784
 H         -1.5818219261       -1.9595036700        2.1879534374
 H          1.8353576990       -4.4894327175        1.4272854464
 H          0.0736231078       -4.2822881972        1.5892355909
 H          0.7276960875       -5.1497676132        0.2080613662
 H          4.9647270687       -2.5132550626       -0.0953530021
 H          4.0843566614       -1.7779175721        1.2554928388
 H          5.4541195510        0.2522055965        1.1143004339
 H          6.4904661574       -1.1624250119        1.2872386718
 H          6.9444515225       -1.1689650601       -1.1408989434
 H          7.3288892385        0.4249170885       -0.4845633445
 H          5.1312227653        1.2823635928       -1.2220446529
 H          5.9715308350        0.5682940114       -2.6066019687
 H          4.7228973065       -1.5474237636       -2.2826077085
 H          3.6160904310       -0.1962793463       -2.5554507808
  86
  -128.943532875100       0.189394412583529      !
 C          2.7134403857        2.6466115521       -1.6601543151
 O          2.5163476405        1.3111274901       -1.2607870677
 C          1.3978878377        0.6429498820       -1.6229452785
 C          0.3346979983        1.1950307836       -2.3353594481
 C          0.2565401641        2.5308578366       -2.7749086086
 N          0.0683130771        3.5952512037       -3.1674301238
 C         -0.8107549213        0.4120427469       -2.6560779868
 C         -1.8690394931        0.9894756584       -3.5389322189
 C         -0.9229722286       -0.8376251842       -2.1232714391
 C          0.0955085300       -1.4058663765       -1.3385619180
 C         -0.0822145535       -2.6606111157       -0.6947833712
 Se        -1.6961401792       -3.6083047957       -0.7786165475
 Se        -3.5918274698       -1.6767095100        0.5011350404
 C         -2.5861859071       -0.0959746122        0.4912600073
 C         -3.0228652100        0.9925517515       -0.2693089861
 C         -4.2765664697        0.9342999773       -1.0776356227
 N         -2.3858440741        2.1490990473       -0.2525733284
 C         -1.2896141336        2.3402755763        0.4693598502
 N         -0.8716367111        3.6317921156        0.5705499163
 C         -1.5163462544        4.6165493439       -0.2735821987
 C         -2.8546211776        5.0812366948        0.3208586491
 C         -2.7916338820        4.9952761293        1.8489293137
 C         -1.3714126102        5.2962042615        2.3154794444
 C         -0.4203515606        4.1864116485        1.8320335670
 C         -0.6166366519        1.2347880053        1.0904588842
 C          0.7288304391        1.2569037477        1.5542123938
 O          1.4346557634        2.3577901113        1.2118310741
 C          2.7679006145        2.5235210775        1.6328066326
 C          1.2298571500        0.1669664872        2.2640375157
 C          2.5394072449        0.0691883592        2.7721879990
 N          3.5783881349       -0.1147606718        3.2295794818
 C          0.4109876821       -0.9698463383        2.5186865101
 C          0.9371408412       -2.0706099137        3.3816212022
 C         -0.8219885855       -1.0395406785        1.9395802894
 C         -1.3455716397        0.0180095592        1.1753415139
 C          0.9663750076       -3.1570730789        0.0814986883
 C          0.8476736152       -4.4323540765        0.8477889027
 N          2.1409224801       -2.5526127603        0.1208485437
 C          2.3892539988       -1.4344331906       -0.5456498915
 N          3.7000911113       -1.0425864191       -0.5531880235
 C          4.6004929973       -1.7292746606        0.3572182349
 C          5.7899190203       -0.8320142948        0.6838855949
 C          6.5216093781       -0.4238602732       -0.5894304704
 C          5.5318675588        0.2348167244       -1.5438584989
 C          4.3613730394       -0.7085288745       -1.8005538096
 C          1.3288373690       -0.7135579565       -1.1923541534
 H          1.9633455546        3.3091536746       -1.2222605364
 H          3.7005007437        2.9216681489       -1.2896820955
 H          2.7017970813        2.7469137430       -2.7488424621
 H         -1.4344316470        1.3410502672       -4.4744061845
 H         -2.3400163736        1.8445787647       -3.0557937670
 H         -2.6281450710        0.2445201399       -3.7612776678
 H         -1.8139359574       -1.4232188080       -2.3034226271
 H         -5.1248124734        0.7469214076       -0.4184994026
 H         -4.4273733126        1.8749835740       -1.5986992544
 H         -4.2335013619        0.1168843586       -1.7950768189
 H         -1.6589371836        4.1869945407       -1.2638373662
 H         -0.8220971912        5.4562690868       -0.3582866048
 H         -3.6606432221        4.4491124203       -0.0484094006
 H         -3.0478468101        6.1065470495        0.0037240110
 H         -3.0666186325        3.9892929619        2.1743111141
 H         -3.4975535200        5.6941885584        2.2984341081
 H         -1.3239090649        5.3515276783        3.4036721094
 H         -1.0616819594        6.2645669840        1.9193448910
 H          0.5917110990        4.5901720199        1.7193889157
 H         -0.3930022830        3.3876057396        2.5755587528
 H          3.4173214658        1.7568401637        1.2039238357
 H          2.8515477939        2.5100739966        2.7226032160
 H          3.0682094069        3.5040480606        1.2635362678
 H          1.2839035856       -1.6754505641        4.3361011042
 H          1.7859147675       -2.5546145934        2.8997140498
 H          0.1651867050       -2.8126717175        3.5663677636
 H         -1.4296877926       -1.9244360216        2.0692437796
 H          1.7740094364       -4.6338654755        1.3771085369
 H          0.0208760980       -4.3801902399        1.5540453034
 H          0.6393959133       -5.2519257594        0.1595439365
 H          4.9489349449       -2.6709685107       -0.0891003731
 H          4.0520649149       -1.9657390336        1.2677807868
 H          5.4294831379        0.0545750369        1.2079716319
 H          6.4601877054       -1.3673093041        1.3567579808
 H          6.9526508333       -1.3087148092       -1.0640029695
 H          7.3367483279        0.2628525540       -0.3554302929
 H          5.1567177694        1.1546286350       -1.0962187172
 H          6.0127049999        0.4811220296       -2.4920000740
 H          4.7475043241       -1.6371267275       -2.2523739907
 H          3.6521072674       -0.2724503889       -2.5010249429
  86
  -128.943485113600       0.180060104090123      !
 C          2.8510762300        2.5700155619       -1.6320598937
 O          2.6009668768        1.2520958958       -1.2027955426
 C          1.4647829371        0.6158710657       -1.5699678588
 C          0.4063867496        1.2081949241       -2.2569570259
 C          0.3415908258        2.5622365872       -2.6392229249
 N          0.1629922024        3.6464477030       -2.9787009266
 C         -0.7529010209        0.4537578716       -2.5961342888
 C         -1.8038316260        1.0736646307       -3.4589479301
 C         -0.8860047147       -0.8075835352       -2.0963361697
 C          0.1216504569       -1.4116929854       -1.3243532714
 C         -0.0810327603       -2.6721905224       -0.6992124339
 Se        -1.7057236363       -3.5982804575       -0.8084865651
 Se        -3.5750558411       -1.6855270902        0.5317985077
 C         -2.5947364420       -0.0894723498        0.4936333543
 C         -3.0595944281        0.9838753319       -0.2720017252
 C         -4.3078833939        0.8877826815       -1.0850601881
 N         -2.4537752489        2.1570633899       -0.2586567327
 C         -1.3619964562        2.3785431094        0.4611298131
 N         -0.9871186629        3.6809584397        0.5744426796
 C         -1.6687010260        4.6535125366       -0.2538483918
 C         -3.0190324712        5.0632929694        0.3540140152
 C         -2.9460103976        4.9498681841        1.8798692548
 C         -1.5365817451        5.2970513741        2.3475419678
 C         -0.5439781286        4.2355752896        1.8380278993
 C         -0.6502987416        1.2884432313        1.0673347008
 C          0.7012383709        1.3443758745        1.5074687229
 O          1.3684989082        2.4715155652        1.1695297937
 C          2.6709583364        2.7121679729        1.6484827033
 C          1.2489378469        0.2583052162        2.1880381859
 C          2.5823589877        0.1773831102        2.6329426109
 N          3.6488028432        0.0059238911        3.0277513010
 C          0.4624652110       -0.8977407045        2.4583084521
 C          1.0361978172       -1.9911964102        3.3002528994
 C         -0.7835283931       -0.9924516414        1.9112517083
 C         -1.3470379816        0.0534138666        1.1592273026
 C          0.9521167596       -3.1917850496        0.0828444468
 C          0.7973683911       -4.4582240560        0.8572622083
 N          2.1409660496       -2.6166245383        0.1233919616
 C          2.4169960259       -1.5040030000       -0.5417360311
 N          3.7378259328       -1.1559124361       -0.5675534644
 C          4.6319732590       -1.8779933102        0.3204272899
 C          5.8483082922       -1.0163402200        0.6426375346
 C          6.5730328004       -0.6114906643       -0.6354890197
 C          5.5885282363        0.0916323805       -1.5629204845
 C          4.3878999750       -0.8134679555       -1.8177224604
 C          1.3692184030       -0.7473514301       -1.1693310014
 H          2.1392966574        3.2748029533       -1.1975299996
 H          3.8553671919        2.8083558263       -1.2829384558
 H          2.8243956028        2.6486498517       -2.7224833072
 H         -1.3627292117        1.4699641666       -4.3730804921
 H         -2.2785973372        1.9040344285       -2.9375741039
 H         -2.5619252250        0.3409151444       -3.7214638173
 H         -1.7870808272       -1.3730348997       -2.2900573858
 H         -5.1535877962        0.6779568742       -0.4294312445
 H         -4.4828514186        1.8219333110       -1.6103496831
 H         -4.2378847295        0.0696609742       -1.7997951595
 H         -1.7998041270        4.2309401322       -1.2485966591
 H         -1.0038044905        5.5170863085       -0.3308821984
 H         -3.8062773971        4.4127247364       -0.0237773890
 H         -3.2470970541        6.0878296660        0.0582024696
 H         -3.1805455119        3.9277497824        2.1861480698
 H         -3.6768005791        5.6117037875        2.3455255822
 H         -1.4872378858        5.3327194886        3.4364808333
 H         -1.2672179457        6.2845687794        1.9697216971
 H          0.4481648946        4.6840043512        1.7186738654
 H         -0.4738576320        3.4284126921        2.5696015589
 H          3.3884402685        2.0043832949        1.2284662789
 H          2.7119032451        2.6700645540        2.7401389953
 H          2.9197005606        3.7209952391        1.3188931841
 H          1.4336594288       -1.5897141585        4.2319416174
 H          1.8577174726       -2.4778577271        2.7751946428
 H          0.2767577115       -2.7336413481        3.5300187801
 H         -1.3687718494       -1.8904840502        2.0534876385
 H          1.7166177804       -4.6814288139        1.3901694181
 H         -0.0287247398       -4.3775329722        1.5618639641
 H          0.5669213154       -5.2767522552        0.1749498918
 H          4.9482569713       -2.8228427119       -0.1430470751
 H          4.0889291077       -2.1106350305        1.2350737244
 H          5.5144208018       -0.1283683048        1.1812128070
 H          6.5135704996       -1.5771922424        1.2995923633
 H          6.9700115206       -1.5012933434       -1.1303415054
 H          7.4118457711        0.0470205404       -0.4043616970
 H          5.2467449982        1.0125308242       -1.0918603217
 H          6.0613478210        0.3417886475       -2.5141464649
 H          4.7406447865       -1.7429272801       -2.2946064048
 H          3.6793814568       -0.3441074299       -2.4972524177
  86
  -128.943335424400       0.153682743067128      !
 C          2.8901924894        2.7174102748       -1.6856651490
 O          2.5518943426        1.4017817351       -1.3193476754
 C          1.4072064498        0.8359086375       -1.7644541272
 C          0.4392673297        1.4810801328       -2.5332041695
 C          0.4997036890        2.8252942580       -2.9497143993
 N          0.4332118281        3.9073390691       -3.3340222859
 C         -0.7363309177        0.7911367371       -2.9476534283
 C         -1.7237489680        1.4734151655       -3.8392131078
 C         -0.9620216004       -0.4679324612       -2.4810149511
 C         -0.0551191225       -1.1193764140       -1.6271811854
 C         -0.3923384311       -2.3404591798       -0.9851383440
 Se        -2.0029328101       -3.2338408376       -1.3442924206
 Se        -3.3006009508       -2.0234121676        1.1176241642
 C         -2.3499010283       -0.4313145801        0.8262687320
 C         -2.8021180588        0.4939347976       -0.1153610976
 C         -4.0004748006        0.2415444303       -0.9691738901
 N         -2.2547563418        1.6937919282       -0.2169466054
 C         -1.2078695059        2.0569054963        0.5112671830
 N         -0.8943155104        3.3789591870        0.4797660084
 C         -1.6099071253        4.2192658285       -0.4572657518
 C         -2.9802560126        4.6372725909        0.0979863349
 C         -2.9086969412        4.7236645871        1.6257533442
 C         -1.5137954806        5.1765824219        2.0431932475
 C         -0.4854063138        4.0926113356        1.6736366583
 C         -0.4751047339        1.0818163441        1.2696381378
 C          0.8717514554        1.2302409075        1.7023366629
 O          1.5002947084        2.3354592469        1.2424550275
 C          2.8221313804        2.6273061558        1.6275796732
 C          1.4518062243        0.2443035914        2.4994506999
 C          2.7747061188        0.2719593836        2.9798445636
 N          3.8325026626        0.1946434502        3.4251504536
 C          0.7066621944       -0.9078057731        2.8829468699
 C          1.3272223160       -1.9219305810        3.7894183299
 C         -0.5422088739       -1.0890655655        2.3708920119
 C         -1.1372188452       -0.1508638687        1.5089334757
 C          0.4996170214       -2.8524944941       -0.0438055742
 C          0.1919651425       -4.0625097507        0.7741275195
 N          1.7183491931       -2.3520032322        0.0873423464
 C          2.1340706633       -1.3023032039       -0.6048555840
 N          3.4736982884       -1.0406420223       -0.5391727751
 C          4.2475997685       -1.7975122796        0.4292750123
 C          5.5240178363       -1.0448683409        0.7909648566
 C          6.3485879294       -0.7497597944       -0.4564639017
 C          5.4825614487        0.0044316808       -1.4590574118
 C          4.2256809774       -0.8048330804       -1.7580490546
 C          1.2006398425       -0.5132197843       -1.3596054615
 H          2.1762348055        3.4405490391       -1.2850658298
 H          3.8734818626        2.8997842495       -1.2529914900
 H          2.9533954029        2.8293350456       -2.7715885768
 H         -2.4779218844        0.7680537705       -4.1780010969
 H         -1.2299122173        1.9119533898       -4.7052491190
 H         -2.2194756049        2.2817983230       -3.3010864430
 H         -1.8728726679       -0.9855184491       -2.7459068177
 H         -3.9525813646       -0.7504320607       -1.4157552409
 H         -4.9013781251        0.2818227680       -0.3557323659
 H         -4.0670476558        0.9987285413       -1.7442866680
 H         -1.7245739114        3.6766675944       -1.3934788788
 H         -0.9828866345        5.0950029091       -0.6409390494
 H         -3.7326072109        3.9054011404       -0.1926606258
 H         -3.2565333927        5.6026093920       -0.3272531854
 H         -3.1085606424        3.7420824000        2.0617976413
 H         -3.6635871817        5.4141164464        2.0028019964
 H         -1.4687676480        5.3529727730        3.1184682256
 H         -1.2767489321        6.1160334960        1.5415059426
 H          0.4957559152        4.5524651563        1.5136423010
 H         -0.4031425046        3.3792276551        2.4957865798
 H          3.5211317933        1.8803636304        1.2443656788
 H          2.9197010441        2.6995773799        2.7138691000
 H          3.0470942988        3.5973367219        1.1847515357
 H          1.7218511786       -1.4503880253        4.6885416120
 H          2.1601298580       -2.4148205585        3.2873764931
 H          0.5966549866       -2.6746276357        4.0735650157
 H         -1.0968986329       -1.9856909161        2.6078448276
 H          0.9256978789       -4.1671704804        1.5671342895
 H         -0.8108235888       -3.9991572510        1.1934726672
 H          0.2279960043       -4.9495337457        0.1406766110
 H          4.4969644431       -2.7879046266        0.0227678335
 H          3.6327701510       -1.9420192066        1.3166327095
 H          5.2592481912       -0.1120406553        1.2908578642
 H          6.0978279416       -1.6462801158        1.4965334292
 H          6.6894414626       -1.6875090873       -0.9020369071
 H          7.2296123793       -0.1609021738       -0.1968234782
 H          5.1953380855        0.9678164734       -1.0383094554
 H          6.0283121673        0.1803574526       -2.3874663178
 H          4.5234573215       -1.7786630752       -2.1805030702
 H          3.6022859238       -0.3027340913       -2.4949095093
  86
  -128.943314678400       0.150345662146205      !
 C          3.1493016418        2.4874420898       -1.5875727786
 O          2.7034641936        1.2346405536       -1.1194742906
 C          1.5383948234        0.7153971511       -1.5784575374
 C          0.5656894294        1.4430579455       -2.2657021368
 C          0.6119955115        2.8312597306       -2.4953649071
 N          0.5286930154        3.9592114691       -2.7043259540
 C         -0.6183714726        0.8068428841       -2.7346551110
 C         -1.6065228694        1.5678231193       -3.5586483868
 C         -0.8634526886       -0.4796435909       -2.3610927747
 C          0.0297348046       -1.2038826437       -1.5535458442
 C         -0.3510198768       -2.4383464219       -0.9654203029
 Se        -1.9916687890       -3.2587566778       -1.3554617382
 Se        -3.2410652625       -1.9866843263        1.1145308120
 C         -2.3717215950       -0.3606498829        0.7702700303
 C         -2.9049530225        0.5466715243       -0.1478083894
 C         -4.1004525337        0.2225548095       -0.9808789571
 N         -2.4388912216        1.7807578587       -0.2426463198
 C         -1.3980896700        2.1990706004        0.4667235620
 N         -1.1876636380        3.5382245339        0.4785536990
 C         -1.9811887939        4.3657416202       -0.4033302913
 C         -3.3503095522        4.6849115371        0.2168114011
 C         -3.2239169900        4.7160468621        1.7432376652
 C         -1.8438997010        5.2389460883        2.1274589815
 C         -0.7647307641        4.2387977152        1.6730244687
 C         -0.5674042999        1.2520001365        1.1601775871
 C          0.7884361267        1.4682113773        1.5244090944
 O          1.3243299416        2.6376129061        1.1002839442
 C          2.5464112553        3.0992681777        1.6292961164
 C          1.4834018155        0.4772391076        2.2180071128
 C          2.8557330245        0.5323699438        2.5208551665
 N          3.9733688838        0.4731759429        2.7867739611
 C          0.8269672807       -0.7209005265        2.6193549011
 C          1.5602098523       -1.7350323915        3.4366473485
 C         -0.4472477833       -0.9493597138        2.1944512781
 C         -1.1424348588       -0.0252131172        1.3954194958
 C          0.5207851869       -3.0094717871       -0.0381577342
 C          0.1509870459       -4.2034160550        0.7772368327
 N          1.7654880668       -2.5788277429        0.0780598628
 C          2.2286560183       -1.5324313421       -0.5937559667
 N          3.5789675921       -1.3842238452       -0.5806490323
 C          4.3585980629       -2.2649328701        0.2696909759
 C          5.6230287887       -1.5562417425        0.7453981832
 C          6.4483280347       -1.0821579570       -0.4450781033
 C          5.5745065841       -0.1986699751       -1.3278479756
 C          4.3271202359       -0.9701416426       -1.7485724481
 C          1.3099725069       -0.6534407887       -1.2709360312
 H          2.5535518410        3.3060727608       -1.1815365580
 H          4.1789817605        2.5839557830       -1.2441566106
 H          3.1313165345        2.5346900815       -2.6803638589
 H         -1.1097381283        2.2082854449       -4.2848924722
 H         -2.2089480685        2.2034053231       -2.9085173084
 H         -2.2714277638        0.8819693361       -4.0777090270
 H         -1.7861145980       -0.9587443882       -2.6561341737
 H         -4.9883085786        0.1844016532       -0.3487305520
 H         -4.2413854635        0.9847172492       -1.7411955024
 H         -3.9879313466       -0.7556556618       -1.4461456424
 H         -2.0972715551        3.8501303316       -1.3541836049
 H         -1.4088904127        5.2797956558       -0.5765399454
 H         -4.0731318537        3.9242292485       -0.0753922521
 H         -3.6954081207        5.6491613473       -0.1577202721
 H         -3.3464429054        3.7076176799        2.1452417501
 H         -4.0040131366        5.3427892853        2.1762046015
 H         -1.7675754304        5.3748751169        3.2068632946
 H         -1.6856865286        6.2107986362        1.6575639293
 H          0.1721058379        4.7708631439        1.4784084703
 H         -0.5934258107        3.5076006737        2.4653872960
 H          3.3939051829        2.5223435747        1.2563074907
 H          2.5442131253        3.0726281528        2.7227114184
 H          2.6384449854        4.1330270537        1.2951551469
 H          2.1305444430       -1.2629076176        4.2346394571
 H          2.2625706503       -2.2770924300        2.8028539395
 H          0.8632353134       -2.4495893280        3.8664877219
 H         -0.9389768275       -1.8786652279        2.4439509701
 H          0.8904040737       -4.3631585772        1.5559875327
 H         -0.8374866092       -4.0753711635        1.2161358902
 H          0.1143727839       -5.0862365684        0.1382675694
 H          4.6229047076       -3.1768900691       -0.2842310498
 H          3.7416630578       -2.5528722848        1.1189735598
 H          5.3379322355       -0.7023466955        1.3623139280
 H          6.2019800067       -2.2438689429        1.3630951296
 H          6.7996464349       -1.9431540863       -1.0197180107
 H          7.3223822300       -0.5270271587       -0.1016894509
 H          5.2724226760        0.6803115178       -0.7595942273
 H          6.1188120847        0.1257494879       -2.2162613725
 H          4.6385342201       -1.8733857167       -2.2982623963
 H          3.7014372821       -0.3808271806       -2.4145335302
  86
  -128.943039062200       0.112312079021620      !
 C          2.7530329590        2.8040740563       -1.7009853273
 O          2.4600825747        1.4718572257       -1.3578052715
 C          1.3388771064        0.8716149051       -1.8161996820
 C          0.3769474020        1.4761716285       -2.6242366770
 C          0.4380742078        2.7992407795       -3.1042171321
 N          0.3774640632        3.8583316818       -3.5487733589
 C         -0.7850664875        0.7588925230       -3.0305654050
 C         -1.7686527111        1.4022903099       -3.9544060617
 C         -0.9992921568       -0.4889133220       -2.5297979812
 C         -0.0892586491       -1.1068897429       -1.6543743798
 C         -0.4088872450       -2.3240432406       -0.9958575677
 Se        -2.0085684609       -3.2442767909       -1.3384191137
 Se        -3.3106737466       -2.0220132734        1.1155834402
 C         -2.3317315048       -0.4441608673        0.8394819502
 C         -2.7540781974        0.4894884434       -0.1075491745
 C         -3.9521484497        0.2657781997       -0.9697482279
 N         -2.1774003603        1.6759356094       -0.2084118914
 C         -1.1305721638        2.0169065561        0.5297975402
 N         -0.7768539439        3.3298455620        0.4887842440
 C         -1.4488648914        4.1769830385       -0.4742413936
 C         -2.8194091038        4.6421431329        0.0423716585
 C         -2.7859096200        4.7356921182        1.5707916776
 C         -1.3915796694        5.1572128492        2.0214429217
 C         -0.3817293339        4.0449422002        1.6872111526
 C         -0.4347890069        1.0315461200        1.3081816515
 C          0.9071461891        1.1561740936        1.7642685882
 O          1.5643234137        2.2435981827        1.3052148756
 C          2.9093870594        2.4753136728        1.6462625380
 C          1.4497060663        0.1675470823        2.5841370140
 C          2.7559881671        0.1846540075        3.1091474249
 N          3.7951097064        0.1040676480        3.5960590094
 C          0.6761192234       -0.9693380920        2.9564412021
 C          1.2597294418       -1.9877380561        3.8825415915
 C         -0.5646789764       -1.1314687938        2.4187368844
 C         -1.1255210851       -0.1858204332        1.5420964491
 C          0.4903317976       -2.8134795268       -0.0501853619
 C          0.2066628438       -4.0288660999        0.7685224967
 N          1.6971686359       -2.2857743939        0.0850444643
 C          2.0939601201       -1.2306264496       -0.6094747513
 N          3.4270831188       -0.9346856124       -0.5279389344
 C          4.2054923476       -1.6753245293        0.4504485581
 C          5.4695135066       -0.9051477657        0.8198439405
 C          6.2972480691       -0.5918801163       -0.4212450519
 C          5.4242447997        0.1420808591       -1.4328966589
 C          4.1885102822       -0.6957389362       -1.7409069940
 C          1.1522981890       -0.4728108241       -1.3850387772
 H          1.9966620017        3.4916921564       -1.3145934125
 H          3.7143596558        3.0219438824       -1.2365233851
 H          2.8460368193        2.9312606859       -2.7829931614
 H         -2.5369584578        0.6905989890       -4.2451240342
 H         -1.2731631394        1.7763175549       -4.8494381500
 H         -2.2452037648        2.2527453997       -3.4666272768
 H         -1.9005524014       -1.0260789048       -2.7884897256
 H         -3.9322630609       -0.7316002560       -1.4061951415
 H         -4.8563516877        0.3414355071       -0.3644273622
 H         -3.9879098975        1.0170885339       -1.7525446342
 H         -1.5591606998        3.6252682353       -1.4058442408
 H         -0.7942264646        5.0334143644       -0.6547843603
 H         -3.5874070100        3.9335822230       -0.2646067982
 H         -3.0520961490        5.6136280158       -0.3949530668
 H         -3.0205687890        3.7615084694        2.0062466565
 H         -3.5335667765        5.4462217025        1.9241746804
 H         -1.3698841848        5.3413967764        3.0961991315
 H         -1.1179335506        6.0863783456        1.5189193065
 H          0.6147207932        4.4784688860        1.5496364868
 H         -0.3381548140        3.3369890363        2.5168933017
 H          3.5571421005        1.6881523604        1.2527508812
 H          3.0449602902        2.5602577098        2.7274327933
 H          3.1667633524        3.4261627505        1.1804598536
 H          2.1141251552       -2.4772314898        3.4144921171
 H          0.5186394765       -2.7419349929        4.1336266902
 H          1.6156805172       -1.5190291030        4.7993168267
 H         -1.1405933187       -2.0166697692        2.6482840845
 H         -0.7914939246       -3.9780478079        1.2003863312
 H          0.2447554458       -4.9135260855        0.1317598850
 H          0.9510984897       -4.1264139481        1.5524291518
 H          4.4725792473       -2.6635323353        0.0500343358
 H          3.5866030225       -1.8267188563        1.3339540190
 H          5.1924488020        0.0221172517        1.3235509054
 H          6.0479732986       -1.5010949580        1.5262118101
 H          6.6623173227       -1.5220134332       -0.8632373199
 H          7.1628495877        0.0160274395       -0.1538199945
 H          5.1114801296        1.1004570121       -1.0184051172
 H          5.9749818788        0.3276355592       -2.3564439694
 H          4.5115926652       -1.6670617634       -2.1502663683
 H          3.5646862113       -0.2133328472       -2.4901285491
