  65
       -105.56705679
 C         -6.9541721652       -0.8512053240       -2.0526886082
 C         -5.6683830799       -0.4287102280       -1.3428724950
 C         -4.6072415920       -0.1207509003       -2.4187810674
 C         -5.1345923586       -1.5080639927       -0.4166650424
 C         -5.5672526121       -2.8249747669       -0.4146511629
 C         -5.0376017233       -3.7454391099        0.4741288044
 C         -4.0860916212       -3.3539367031        1.3988244229
 C         -3.6479441896       -2.0431054091        1.4207778166
 C         -4.1456972939       -1.1327585527        0.4975971087
 N         -3.7493811536        0.2226094874        0.5227542353
 C         -2.4395784736        0.6271195062        0.4097847650
 C         -2.1366156922        2.0113481340        0.2469089829
 C         -0.8577819603        2.4577682933        0.1359608496
 C          0.2241819986        1.5488762596        0.1599368224
 N          1.4787420965        1.9873095891        0.0693193171
 C          2.4493922307        1.0857303122        0.0529560535
 C          3.8181535165        1.5360020224       -0.0370692540
 C          4.0835594353        2.9097539881       -0.0874786860
 C          5.3697391490        3.3785393042       -0.1686553827
 C          6.4265773243        2.4590648843       -0.1991337564
 C          7.7592889921        2.9233053516       -0.2829765884
 N          8.8410977333        3.2991028939       -0.3400817168
 C          6.1782687116        1.0940803634       -0.1513967958
 C          4.8743210353        0.6013279596       -0.0715968775
 C          4.5804845328       -0.8251210291       -0.0238021944
 C          5.5828841127       -1.7964481545       -0.0749035874
 C          5.2729579782       -3.1485621292       -0.0287873680
 C          6.3135082426       -4.1042554664       -0.0881309458
 N          7.1549655828       -4.8813445000       -0.1352955686
 C          3.9421910495       -3.5737095648        0.0741792588
 C          2.9465799905       -2.6311980057        0.1234563227
 C          3.2441313043       -1.2648511253        0.0735499795
 C          2.1604074555       -0.3070167742        0.1185941529
 N          0.9215447613       -0.7531244116        0.2177738173
 C         -0.0707589487        0.1516487733        0.2491758095
 C         -1.3973444151       -0.2820918972        0.3642965206
 C         -4.8504732891        1.1006250051        0.4432391980
 C         -4.9767636319        2.1727209826        1.3180646377
 C         -6.0858298336        2.9941417967        1.2444876797
 C         -7.0773730215        2.7277791408        0.3173576111
 C         -6.9725803135        1.6308370874       -0.5215466372
 C         -5.8638364873        0.8005249005       -0.4723400643
 H         -7.2958708910       -0.0575218611       -2.7122796631
 H         -6.7706859313       -1.7264718959       -2.6705993210
 H         -7.7393906723       -1.0806178912       -1.3358212749
 H         -3.6590050336        0.1782850738       -1.9802162804
 H         -4.4360022451       -1.0046858864       -3.0298286165
 H         -4.9567965517        0.6852330635       -3.0607555639
 H         -6.3246796644       -3.1506222632       -1.1087825096
 H         -5.3806868469       -4.7685561848        0.4509286297
 H         -3.6932652322       -4.0630885985        2.1114469915
 H         -2.9344049831       -1.7176352261        2.1624994837
 H         -2.9477252294        2.7190682694        0.1809204016
 H         -0.6408233046        3.5072021401        0.0107753570
 H          3.2423800768        3.5839657807       -0.0571648125
 H          5.5792801320        4.4369043700       -0.2082216638
 H          7.0251926172        0.4266664673       -0.1777486046
 H          6.6219306914       -1.5198924183       -0.1581276110
 H          3.7177457018       -4.6290042961        0.1095906167
 H          1.9086305110       -2.9146620589        0.1988976803
 H         -1.5666413099       -1.3454976677        0.3932663473
 H         -4.2133091202        2.3485199209        2.0614644517
 H         -6.1792639292        3.8319804045        1.9185767674
 H         -7.9456931190        3.3659766743        0.2558730764
 H         -7.7710917052        1.4323353893       -1.2175798114
