118
 energy: -184.401474988925 gnorm: 0.000076340957 xtb: 6.7.1 (edcfbbe)
O           -0.00521391768242       -4.52008140207292       -0.63504952509190
C            0.04401566181708       -3.25370220998690       -0.58304289421219
C           -1.18964314891876       -2.49211699907101       -0.59125533906883
C           -1.32029519613414       -1.21618869954555       -0.01421012099426
C           -2.53137356395073       -0.56467216570749       -0.01813150012568
C           -3.65446298533987       -1.16732404511602       -0.58435693138804
N           -4.90261270896333       -0.48081900070376       -0.58708457256743
C           -5.10333866954080        0.53695997753476       -1.49924922330326
C           -4.10267079590579        0.85781236531764       -2.42566835540458
C           -4.28372129730404        1.87797193248528       -3.33356893928958
C           -5.46709831003676        2.60087086232310       -3.34659833681484
C           -6.46822437496175        2.27767661102868       -2.45026191191948
C           -6.30589890704548        1.25337057265036       -1.52951284088114
C           -7.44283973476886        0.93024775929786       -0.59645825507101
C           -8.70731650326233        0.64217577505493       -1.38557617580190
C           -8.93346638040357       -0.37393143186904       -2.28674333232470
C          -10.17774344980092       -0.45027254615954       -2.89861633167057
C          -11.16883215797372        0.47508547950983       -2.60926233438493
C          -10.94407229554928        1.49939538636489       -1.70321444542665
C           -9.70514318247756        1.58099935973768       -1.08971718641546
C           -9.17813408861938        2.52449467961539       -0.11510906535752
C           -9.75596747182650        3.62674765863593        0.49241601913325
C           -9.00169148370552        4.35601877647328        1.39787667694053
C           -7.69643962553401        3.99338408973628        1.69278254080061
C           -7.11135919795039        2.88921496368626        1.08696275738440
C           -7.85793140288639        2.16285952816136        0.18656527950512
C           -7.13176758097199       -0.20877402929689        0.34094368847185
C           -8.08550430169946       -0.60775553872239        1.23676017916756
C           -7.85976221769080       -1.65094940479334        2.15636638899653
C           -8.83738019808593       -2.07325392051337        3.07593790561872
C           -8.57171928199211       -3.08543493386700        3.95827927369129
C           -7.31688863420709       -3.71527596425000        3.95852360349912
C           -6.34663691480837       -3.32706010098701        3.07801923447075
C           -6.59080161620867       -2.28786057623016        2.15285990688478
C           -5.61962967827561       -1.86995118952761        1.23265578569066
C           -5.87052645351712       -0.85847660171355        0.31957301929219
C           -3.55313806312754       -2.45299315779025       -1.11944856925079
C           -2.34798298447346       -3.10758263796235       -1.10969071121337
C            1.33153449670675       -2.59127372685469       -0.51770770172873
C            1.55718113382371       -1.28216186472409       -0.97975218407384
C            2.81476305257394       -0.72794845219352       -0.93198322224093
C            3.89101387939505       -1.46320167863204       -0.43565034464805
N            5.18825406039184       -0.87626552607638       -0.38432527156818
C            6.11752574879885       -1.22371734992710       -1.34587552436686
C            5.77050297901231       -2.11579478092429       -2.36878183328239
C            6.69056924851147       -2.48022385803872       -3.32717652580872
C            7.97660665837818       -1.96216565497207       -3.29531530270007
C            8.32212247594677       -1.06666921439433       -2.30085149975150
C            7.41017043548339       -0.68599138599709       -1.32786285917593
C            7.83805966654054        0.31109249465337       -0.28342624419649
C            8.36175607674852        1.57391448379690       -0.94325497864771
C            7.67971519615019        2.45605654737943       -1.75091190710119
C            8.36208732370406        3.55657029468032       -2.25259298684976
C            9.69897398053123        3.76179849182290       -1.94795423601748
C           10.38841706632236        2.87549358887713       -1.13567062582462
C            9.71336779944106        1.77614534771273       -0.63196701393097
C           10.15694942952286        0.69062060629340        0.22984048019747
C           11.38790590456065        0.42974611409085        0.80833546565593
C           11.52260171390976       -0.70060619309295        1.59877706485292
C           10.45094056696965       -1.55479359948422        1.80887376020268
C            9.21421556181498       -1.29894704295076        1.23136244437518
C            9.07724361830094       -0.17677225410474        0.44546439642236
C            6.74559015013825        0.63966637162522        0.70188237225054
C            7.00286818522422        1.53858267314275        1.70041915032556
C            6.03891126442640        1.87670780059303        2.67053668721919
C            6.29303371359500        2.80441832002777        3.69748745685740
C            5.33068411708817        3.09610336776613        4.62600042997036
C            4.07522176745828        2.47047123072764        4.56650291793639
C            3.79851100317094        1.56488622785944        3.58128128230274
C            4.76928916410025        1.24429205472575        2.60654970272827
C            4.51644175412136        0.32379586216502        1.58020219879589
C            5.47078574145763        0.02183606165695        0.62241309181488
C            3.69361764571138       -2.77946356808955       -0.01464067749424
C            2.44140676117783       -3.33659831992080       -0.06794435885657
H           -0.47575110892832       -0.75738702423199        0.47663261521376
H           -2.62807849977511        0.41432239663196        0.43032130031196
H           -3.18359652029660        0.29330728778210       -2.42783706378184
H           -3.49819314994043        2.10899040609775       -4.03714685683880
H           -5.61075935792587        3.40283865710154       -4.05387565761857
H           -7.39936892826646        2.82530065393415       -2.46022993607311
H           -8.16161853435508       -1.09508199349226       -2.51342584787574
H          -10.37533419699090       -1.23982554555117       -3.60837577674871
H          -12.12915112821105        0.39604570447389       -3.09756167104717
H          -11.71890008623693        2.21816729023552       -1.48140585570545
H          -10.77226783295961        3.91302187789965        0.26581222633369
H           -9.43597545171469        5.21911339790801        1.88097971978112
H           -7.12767910185569        4.57644247507679        2.40191231942972
H           -6.09421346896334        2.60735198491905        1.31774742779165
H           -9.04459225571138       -0.10895524606964        1.24649884850253
H           -9.80074124657807       -1.58351431872173        3.07146297197451
H           -9.32576028874300       -3.40697643733941        4.66154720545953
H           -7.12560073027326       -4.51176780497396        4.66254272173155
H           -5.37978396755207       -3.80909591299428        3.07228614067896
H           -4.65583357151156       -2.35518802399678        1.24643833785433
H           -4.43218608293347       -2.92122607966595       -1.53855326218915
H           -2.25294435539803       -4.10386606292536       -1.51340715419920
H            0.74815508181013       -0.71798013859081       -1.41775612895421
H            2.98440670226341        0.27723220236289       -1.29206874098471
H            4.77002920405649       -2.51691848941544       -2.40528760284637
H            6.40193140870484       -3.17105273918388       -4.10473898896313
H            8.70047900448352       -2.24822406489979       -4.04244797663466
H            9.31766597136988       -0.64811450310273       -2.27300966638192
H            6.63827254682034        2.29612455494462       -1.98988927705456
H            7.84518113223451        4.26041611877273       -2.88797660406456
H           10.20966889854477        4.62456113968456       -2.35013125218530
H           11.42988685309725        3.03920738771101       -0.90179773655525
H           12.22550556349619        1.09214265840205        0.64756012434758
H           12.47542534139562       -0.91984066366961        2.05808266758434
H           10.57909817650427       -2.42953328594950        2.42904054603460
H            8.37968653983328       -1.96501026677644        1.39602189936257
H            7.97643801641801        2.00539315110747        1.75482308953574
H            7.26206987522724        3.28101943590440        3.73859573804675
H            5.53029777712302        3.80916833875255        5.41225739723758
H            3.32862819815486        2.71229402609790        5.30876881699990
H            2.83399226150366        1.08043661487027        3.53094870705912
H            3.55141410993720       -0.15829988665701        1.54636050492515
H            4.53603660565328       -3.34902268679009        0.35076676497657
H            2.27196778348553       -4.35479727307523        0.24690806137874
