  118
       -184.47568445
 O         -0.0009357704        6.4699060176        0.0802159810
 C         -0.0186784230        5.2626231100        0.0679038031
 C         -1.2501828460        4.4219621946        0.0953064943
 C         -1.3285200376        3.3860713845        1.0254049681
 C         -2.3871084059        2.5060231718        0.9956265425
 C         -3.3553276576        2.6097869531       -0.0016151649
 N         -4.3421678795        1.6020335556       -0.1020834947
 C         -5.6812788865        1.9051923883        0.1156847915
 C         -6.0781954483        3.2168026125        0.3900676806
 C         -7.4082853885        3.5296030689        0.5803014988
 C         -8.3750430683        2.5410983317        0.5127341453
 C         -7.9859878967        1.2349790060        0.2870213456
 C         -6.6526943060        0.9015492993        0.0972672661
 C         -6.2935091737       -0.5547889699       -0.0640307368
 C         -7.1246412650       -1.2003995417       -1.1557658666
 C         -7.1402313048       -0.9053621677       -2.5005449578
 C         -7.9921874500       -1.6258610030       -3.3270467249
 C         -8.8089566063       -2.6200674572       -2.8109522085
 C         -8.7957467194       -2.9206777471       -1.4582882903
 C         -7.9480644664       -2.2054208698       -0.6291591956
 C         -7.7172057624       -2.2870891951        0.8054011144
 C         -8.2758182150       -3.1037446274        1.7741858651
 C         -7.8592597459       -2.9548456560        3.0874306680
 C         -6.9037662560       -2.0100560343        3.4286385401
 C         -6.3405160965       -1.1882322909        2.4616738692
 C         -6.7519577235       -1.3331839004        1.1557767046
 C         -4.8228989282       -0.7776445534       -0.3134193739
 C         -4.3736310987       -2.0563672055       -0.5121405472
 C         -3.0218517354       -2.3436361212       -0.7789462656
 C         -2.5393344327       -3.6559207531       -0.9495657782
 C         -1.2188549869       -3.8811274713       -1.2249891276
 C         -0.3263976352       -2.8050994108       -1.3514834593
 C         -0.7655011690       -1.5213277002       -1.1928671710
 C         -2.1187200336       -1.2567365808       -0.8931233918
 C         -2.5946509016        0.0484803542       -0.6910461343
 C         -3.9104037549        0.3038479578       -0.3585565340
 C         -3.2998325080        3.6648572526       -0.9063499837
 C         -2.2653042014        4.5813302948       -0.8400790462
 C          1.1908866356        4.3933606978        0.0247441680
 C          2.2606196053        4.5909741517        0.8901815431
 C          3.2990518782        3.6781076335        0.9337549265
 C          3.3032349630        2.5849238332        0.0729504380
 N          4.3127068325        1.5974482646        0.1380025012
 C          5.6255783617        1.9148995792       -0.1939155304
 C          5.9789944550        3.2243213566       -0.5315227567
 C          7.2847696061        3.5510048251       -0.8340836717
 C          8.2700615705        2.5788651205       -0.8179807496
 C          7.9206333649        1.2735230536       -0.5315326788
 C          6.6116849805        0.9260200309       -0.2297063076
 C          6.2887777065       -0.5317779497       -0.0151607135
 C          7.2273499279       -1.1528919336        1.0007757732
 C          7.3666355386       -0.8397210520        2.3343837717
 C          8.3049714453       -1.5366546312        3.0840834889
 C          9.0846602824       -2.5252829859        2.5038315614
 C          8.9462229733       -2.8449903972        1.1625124185
 C          8.0114721357       -2.1538758984        0.4100266132
 C          7.6444053262       -2.2601201619       -0.9941726701
 C          8.1150180062       -3.0871239391       -2.0002317433
 C          7.5709105585       -2.9637391437       -3.2687870220
 C          6.5770738774       -2.0332037929       -3.5299949501
 C          6.1016754578       -1.2009864407       -2.5254163332
 C          6.6390717571       -1.3214941915       -1.2635346130
 C          4.8501881623       -0.7684049309        0.3697901997
 C          4.4415329084       -2.0475476701        0.6398580891
 C          3.1221412499       -2.3471412441        1.0270746761
 C          2.6798732706       -3.6616156784        1.2732542863
 C          1.3913840564       -3.8999743334        1.6642548352
 C          0.4933346566       -2.8348049918        1.8350384926
 C          0.8938312981       -1.5491529474        1.6052170531
 C          2.2123257327       -1.2714599567        1.1863063039
 C          2.6466831221        0.0346270081        0.9090219619
 C          3.9259577241        0.2999033165        0.4618165290
 C          2.2700320630        2.4317924943       -0.8501669159
 C          1.2109717082        3.3115144336       -0.8557774944
 H         -0.5579931037        3.2802019170        1.7750873416
 H         -2.4529085414        1.7018021680        1.7132894552
 H         -5.3372649116        3.9971356289        0.4676765690
 H         -7.6873605449        4.5521115537        0.7862749019
 H         -9.4173875910        2.7818067147        0.6525662664
 H         -8.7262606596        0.4485133326        0.2635291832
 H         -6.5043386210       -0.1304865808       -2.9036590107
 H         -8.0200618205       -1.4083159248       -4.3846065837
 H         -9.4650632917       -3.1665424530       -3.4727287318
 H         -9.4340295216       -3.6956948952       -1.0604936585
 H         -9.0213336574       -3.8403727163        1.5136577953
 H         -8.2848671824       -3.5826034448        3.8567185779
 H         -6.5947506697       -1.9115661104        4.4588796475
 H         -5.5977937073       -0.4503266340        2.7288828490
 H         -5.0772856612       -2.8757961297       -0.4639256800
 H         -3.2328489324       -4.4796707374       -0.8556186412
 H         -0.8512852152       -4.8891600016       -1.3487301830
 H          0.7138413394       -3.0014011842       -1.5664838867
 H         -0.0795654448       -0.6905484137       -1.2813367706
 H         -1.8887646012        0.8586121579       -0.7961969433
 H         -4.0557083577        3.7505166106       -1.6727769655
 H         -2.2112905640        5.3963416857       -1.5461043185
 H          2.2485984260        5.4386786309        1.5586660152
 H          4.1021418884        3.7992359746        1.6453860888
 H          5.2226929983        3.9924899384       -0.5705543458
 H          7.5298158642        4.5716846026       -1.0869125903
 H          9.2941866369        2.8308153083       -1.0451465842
 H          8.6725747020        0.4981204058       -0.5488341724
 H          6.7602683348       -0.0685729945        2.7870329726
 H          8.4303694792       -1.3046379205        4.1314281027
 H          9.8100292462       -3.0528048075        3.1060312564
 H          9.5555426016       -3.6160230742        0.7147019963
 H          8.8898175132       -3.8128915959       -1.8022215782
 H          7.9257744925       -3.6006924692       -4.0659144677
 H          6.1679461641       -1.9546656214       -4.5265047753
 H          5.3283941900       -0.4746412674       -2.7303907735
 H          5.1526788580       -2.8574018678        0.5544349846
 H          3.3785694888       -4.4762223471        1.1444861765
 H          1.0541584611       -4.9098166858        1.8460565287
 H         -0.5216899426       -3.0414489531        2.1410800868
 H          0.2022861087       -0.7275580743        1.7280705572
 H          1.9387440697        0.8376902847        1.0499163571
 H          2.2927927163        1.5956914348       -1.5333366549
 H          0.3978620732        3.1724538370       -1.5531242761
