118
 energy: -184.478960295981 gnorm: 0.000063162001 xtb: 6.7.1 (edcfbbe)
O           -0.02442007297087        7.09539415091266       -0.19953669957997
C           -0.01995890853017        5.89360800445826       -0.16710034630737
C           -1.20220619245976        4.99086533913310       -0.00049473927660
C           -1.17720599915687        4.06038802438780        1.03767071674853
C           -2.09481878082291        3.03460149041286        1.06917066941238
C           -3.01731291124747        2.89049711229999        0.03642656622696
N           -3.78797345105419        1.70234380730755       -0.00767166656426
C           -5.13955077096795        1.71248287627694        0.30370340861162
C           -5.81948968428160        2.91999140145237        0.47461836374610
C           -7.16898288186343        2.93348754417445        0.76326636418823
C           -7.86695095567188        1.74511074201923        0.89223882838064
C           -7.19250648123978        0.54582269308583        0.75623739216836
C           -5.83662249302535        0.51221779786552        0.46874287390192
C           -5.12154991918468       -0.81620259576336        0.43800547577736
C           -5.94940376159464       -1.89171768210150       -0.23080579430478
C           -6.39085368781348       -1.93836669470813       -1.53471781417402
C           -7.14541836735297       -3.03117594437342       -1.94028156539361
C           -7.44665738051153       -4.05403101235847       -1.05385905662734
C           -7.00253196700329       -4.01248276633622        0.25838491265637
C           -6.25040881000440       -2.92442107669560        0.66888555233762
C           -5.65962983105307       -2.59970482001392        1.95854176561489
C           -5.66331801060405       -3.28427674944742        3.16241234743922
C           -5.01019082104898       -2.72202092197428        4.24780888309840
C           -4.37060120948602       -1.49696982795147        4.13755784057719
C           -4.36438339553466       -0.80568478151954        2.93287408209033
C           -5.00548071970088       -1.36528468170528        1.85023619093513
C           -3.74282009972704       -0.72372566247316       -0.17074770725454
C           -3.07024947503498       -1.87021507725631       -0.49852414243175
C           -1.76715054658503       -1.84708168193736       -1.02960054179481
C           -1.05792726553206       -3.02025113708043       -1.35144878920519
C            0.20761170005331       -2.95064055588843       -1.86329434958239
C            0.81532864727721       -1.70529130166020       -2.08457212166009
C            0.14929249612052       -0.55130904176021       -1.78442421119874
C           -1.15149340122474       -0.58845818102049       -1.24094778538482
C           -1.85072704435290        0.57981694099978       -0.89697457475240
C           -3.11752701885334        0.53286327678891       -0.35109635728671
C           -3.09716853188159        3.86051351053835       -0.95515251291879
C           -2.20219622084890        4.91771685416626       -0.96216969510829
C            1.16908567068927        4.99220889500320       -0.28386119595349
C            2.17201772379566        4.98418168202110        0.67751289121677
C            3.07555818538108        3.93558444219553        0.73074723667393
C            3.00131690278694        2.90792836335466       -0.20143198946395
N            3.78057301625500        1.73002502976717       -0.08956679541449
C            5.13186408545743        1.73092792225243       -0.40264647732081
C            5.80538013169797        2.93126176383415       -0.63754157103008
C            7.15459841204352        2.93658321123939       -0.92773762366116
C            7.85870093478949        1.74671793285503       -0.99476322219906
C            7.19058288962172        0.55277352842064       -0.79542117590325
C            5.83507758719306        0.52727215267414       -0.50523270321871
C            5.12731217428339       -0.80156891074223       -0.40411420670283
C            5.96118539809484       -1.83538404480692        0.32066165460626
C            6.40348276730107       -1.80985635616900        1.62486649411015
C            7.16446754989956       -2.87516032587854        2.08758966877251
C            7.47110371370682       -3.94215044797570        1.25679054665494
C            7.02611292364449       -3.97324221241727       -0.05545039562132
C            6.26764957129183       -2.91290142704104       -0.52287578192446
C            5.67461030911098       -2.66071814277144       -1.82763584770451
C            5.68113757593719       -3.40877063387686       -2.99311065246915
C            5.02427398824485       -2.90894278153380       -4.10643967842285
C            4.37815220816625       -1.68318688456460       -4.06134296212097
C            4.36899588322482       -0.92843523593203       -2.89539416139921
C            5.01395645396256       -1.42574333033200       -1.78500779545655
C            3.74800940520414       -0.68476973755276        0.19905753217470
C            3.08084290570732       -1.81626278855433        0.58492198017714
C            1.77743470562188       -1.77227702597950        1.11388193743231
C            1.07303149537987       -2.93096124605825        1.49360667721283
C           -0.19296666924331       -2.84127691417731        2.00114167047340
C           -0.80584710217226       -1.58901158485023        2.16047391278068
C           -0.14464921292854       -0.44858044622292        1.80328012937747
C            1.15625189217768       -0.50733733927487        1.26195687959947
C            1.85007848964960        0.64515989409221        0.85894818600809
C            3.11657932567524        0.57629115847408        0.31468158969750
C            2.07537782808651        2.98354845486224       -1.23850763503511
C            1.14945487164698        4.00183575672923       -1.26525484308633
H           -0.42632061997171        4.13935268424724        1.81034823017151
H           -2.07364911378498        2.30248042936025        1.86237340158623
H           -5.28306924657615        3.85272980829017        0.39027459812136
H           -7.67500487665964        3.87895356178061        0.88974428704719
H           -8.92286379745198        1.75118427489949        1.11383775337203
H           -7.72156974328226       -0.38723648177952        0.88486262110968
H           -6.15582806805526       -1.14144662922925       -2.22520526346166
H           -7.50247175258828       -3.08505260307416       -2.95820285875600
H           -8.03595471561374       -4.89422528114889       -1.39141339850967
H           -7.23985215994240       -4.81155721627355        0.94505996084521
H           -6.16432140193326       -4.23646737938680        3.25526813900500
H           -5.00099120119389       -3.24303189462614        5.19412854437694
H           -3.87015525020961       -1.07634381529276        4.99761919436966
H           -3.87114787500720        0.15243944889030        2.84967960894087
H           -3.54624867481091       -2.82787990689478       -0.34110904518785
H           -1.53350764779839       -3.97586728156296       -1.18218163334728
H            0.75174696810064       -3.85216587058184       -2.10343875165206
H            1.81649698514797       -1.67205908726518       -2.48933753430241
H            0.60946040022075        0.41194109240383       -1.94908614412536
H           -1.36395531140687        1.52923172210305       -1.06690194728078
H           -3.83128208951612        3.76248990684503       -1.74103304430304
H           -2.23896368445024        5.65648753115930       -1.74894125063479
H            2.20443641846868        5.76849294007545        1.41909710104976
H            3.81186910992147        3.89009574968031        1.51936045322219
H            5.26419072542589        3.86436410656193       -0.60211378554563
H            7.65558150686708        3.87671188088335       -1.10418689004851
H            8.91442606637612        1.74661009295127       -1.21733225323705
H            7.72437918490532       -0.38301330396719       -0.87552063718223
H            6.16431398446237       -0.97851668882343        2.27198851990501
H            7.52236111461567       -2.87256909211051        3.10663775959308
H            8.06537614439890       -4.75975433929165        1.63823921964608
H            7.26767500294158       -4.80646697960315       -0.69868158565228
H            6.18705391196899       -4.36195521932217       -3.03527276828560
H            5.01715559777956       -3.47997684512629       -5.02345868555328
H            3.87475678135700       -1.31196079675035       -4.94217275957371
H            3.87038028837798        0.02996873469159       -2.86309134609275
H            3.56140461658134       -2.77842857135745        0.47643274979390
H            1.55258948130677       -3.89181501677986        1.37196784593077
H           -0.73356101006440       -3.73201201869714        2.28545835250392
H           -1.80716936829651       -1.54003448827218        2.56321410068461
H           -0.60878998849736        0.51976789979066        1.91993551612666
H            1.35916826812407        1.59979742183520        0.98101688291034
H            2.05837030332277        2.20557723315886       -1.98690767203853
H            0.39636870554196        4.02890642289936       -2.03933648667698
