  54
  -92.5997146892000       0.536716507521476      !
 C         -5.7675352761        2.2011904135       -2.4723338932
 C         -4.7472743364        3.0147429089       -2.0050574032
 C         -3.6888977668        2.4356474579       -1.3280288136
 C         -3.7027144293        1.0562238746       -1.1336723826
 C         -2.6136107911        0.3900240265       -0.4107827962
 N         -1.3856652830        0.7866614858       -0.6323073807
 C         -0.3835340158        0.0729924090       -0.0803545275
 C          0.9562612103        0.4508695535       -0.2665063871
 C          1.9426014346       -0.3835360290        0.2130172273
 N          3.3048863990       -0.0783210827        0.0808189540
 C          4.1602521795       -0.9717128503       -0.5735362140
 C          3.6863960508       -2.0944989265       -1.2411466968
 C          4.5593706739       -2.9620093696       -1.8791674626
 C          5.9170120341       -2.7132283187       -1.8757162659
 C          6.4016045790       -1.5740393421       -1.2511686423
 C          5.5347916164       -0.7050298202       -0.6139848801
 O          6.0824083502        0.4184832619       -0.0504372558
 C          5.2269375805        1.3090996864        0.5465897649
 C          5.7949360063        2.4476406076        1.0891380968
 C          5.0069720861        3.3782832315        1.7483649944
 C          3.6512342231        3.1517778807        1.8741116846
 C          3.0758118632        2.0157683887        1.3260772840
 C          3.8457611581        1.0879910666        0.6359517796
 C          1.5532699554       -1.5834288115        0.8627063612
 N          0.3218736920       -1.9404095719        1.0712260390
 C         -0.6604858376       -1.1296248078        0.6356924453
 N         -1.9246257756       -1.4565294525        0.9408660861
 C         -2.8883455785       -0.6955237047        0.4848058174
 C         -4.2553780290       -0.9607145406        0.9427712295
 C         -4.6827377113       -2.2680284747        1.1671516937
 C         -5.9854467684       -2.4706295950        1.5855893282
 C         -6.8055398975       -1.3691464529        1.7759453671
 C         -6.2725844937       -0.1078622719        1.5492723006
 N         -5.0356960092        0.0983072053        1.1444705355
 N         -4.6722036121        0.2722967115       -1.5987797930
 C         -5.6712369064        0.8349251050       -2.2474449662
 H         -6.6125933612        2.6125257207       -3.0022726124
 H         -4.7764237123        4.0828221787       -2.1672510089
 H         -2.8682624183        3.0201556184       -0.9445920744
 H          1.1837173806        1.3646250930       -0.7944560128
 H          2.6265686471       -2.2925919052       -1.2696610691
 H          4.1638466912       -3.8304379739       -2.3825283901
 H          6.6006000445       -3.3874266581       -2.3662857895
 H          7.4534977540       -1.3374357732       -1.2501238254
 H          6.8603060824        2.5810017787        0.9910669260
 H          5.4583274434        4.2636844087        2.1668422150
 H          3.0262578327        3.8549076820        2.4026814602
 H          2.0184130520        1.8471501429        1.4519580140
 H          2.3144261640       -2.2539861751        1.2415889200
 H         -3.9973012041       -3.0838531941        1.0059597505
 H         -6.3562043138       -3.4700697199        1.7622134001
 H         -7.8288737800       -1.4829330732        2.0984070585
 H         -6.8640751116        0.7859076986        1.7019837902
 H         -6.4310827986        0.1528144278       -2.6071538430
  54
  -92.5995181670000       0.435942894075416      !
 C         -5.6778282485        0.7047864596       -3.3717842086
 C         -4.6677169335        1.6513646174       -3.3039095682
 C         -3.6358422564        1.4618709041       -2.4022439232
 C         -3.6652197567        0.3303230895       -1.5900568867
 C         -2.6011178376        0.0911288602       -0.6082411939
 N         -1.3665806090        0.3456293634       -0.9617802521
 C         -0.3815662147        0.0055150442       -0.1062341646
 C          0.9615738520        0.2804505132       -0.4114016516
 C          1.9339029347       -0.1748906529        0.4526507003
 N          3.2994097699        0.0348217672        0.2135825819
 C          3.9113086179       -0.4255401057       -0.9595074138
 C          3.2180105727       -1.1186664152       -1.9439316533
 C          3.8621631028       -1.5685975049       -3.0861361358
 C          5.2123014731       -1.3423553838       -3.2621209290
 C          5.9262914757       -0.6820224295       -2.2743826454
 C          5.2893931754       -0.2359248825       -1.1303347593
 O          6.0764329211        0.3698732383       -0.1843386739
 C          5.4611328042        0.8294526452        0.9513238408
 C          6.2603146124        1.4686884287        1.8816840411
 C          5.7053097776        1.9927015117        3.0391232801
 C          4.3441192035        1.8932125144        3.2458633878
 C          3.5388059596        1.2533026496        2.3164687895
 C          4.0851311858        0.6859694846        1.1715068955
 C          1.5259265807       -0.9010438099        1.6015915169
 N          0.2901554830       -1.1480982329        1.9167482466
 C         -0.6798501080       -0.6864828923        1.1049169583
 N         -1.9532046436       -0.8508059028        1.4913569317
 C         -2.9032963121       -0.4325390713        0.6917423020
 C         -4.2833223297       -0.4680380760        1.1848431437
 C         -4.7092155261       -1.5036675349        2.0145520171
 C         -6.0223081078       -1.4998525851        2.4491766275
 C         -6.8549754517       -0.4649290451        2.0522675363
 C         -6.3239207963        0.5304745847        1.2438808785
 N         -5.0765537490        0.5361682749        0.8195757786
 N         -4.6237232925       -0.5889110850       -1.6685609627
 C         -5.5977284020       -0.4000898936       -2.5354215741
 H         -6.5023778642        0.8152938590       -4.0588631297
 H         -4.6835071662        2.5212419511       -3.9449537911
 H         -2.8239085291        2.1644834819       -2.3081796135
 H          1.2010028963        0.8276458792       -1.3105959487
 H          2.1672345508       -1.3236933494       -1.8173267005
 H          3.2946752454       -2.1000757891       -3.8342275716
 H          5.7165264008       -1.6840196551       -4.1519801676
 H          6.9862970331       -0.5079519914       -2.3669977327
 H          7.3158392866        1.5492907177        1.6772034287
 H          6.3366356310        2.4853200380        3.7613321561
 H          3.8928944455        2.3165556840        4.1297176049
 H          2.4747848883        1.2016743033        2.4848655435
 H          2.2770051947       -1.2999535459        2.2720121174
 H         -4.0142166835       -2.2788126250        2.2927569286
 H         -6.3915051311       -2.2892184025        3.0881997761
 H         -7.8865000244       -0.4253470241        2.3662075057
 H         -6.9256075360        1.3705033548        0.9211011230
 H         -6.3493501195       -1.1788257516       -2.5629275550
  54
  -92.5965506984000       1.886581007431092E-002 !
 C         -5.6840591405        2.8750809501       -1.8308285090
 C         -5.5764044291        2.7615451841       -0.4521759271
 C         -4.5746062010        1.9698952897        0.0750474902
 C         -3.7124200590        1.3155361605       -0.8067112885
 C         -2.6211157224        0.4725247150       -0.2784838901
 N         -1.3923822839        0.8433996514       -0.5272909803
 C         -0.3887882494        0.1183311275        0.0076354013
 C          0.9507200301        0.4365907760       -0.2690055733
 C          1.9376286237       -0.3180717915        0.3278450410
 N          3.2999229753       -0.0780855489        0.1056762889
 C          4.1163759559       -1.1038250393       -0.3862525990
 C          3.6045607898       -2.3345999305       -0.7795909663
 C          4.4398443176       -3.3301213752       -1.2616841762
 C          5.7972805156       -3.1072723852       -1.3772519511
 C          6.3177017586       -1.8698585932       -1.0313595342
 C          5.4884147982       -0.8734594911       -0.5489440447
 O          6.0709056821        0.3338141038       -0.2622683992
 C          5.2532303908        1.3428569084        0.1781526950
 C          5.8565458833        2.5586869165        0.4451953331
 C          5.1103349099        3.6188581837        0.9351330113
 C          3.7615561254        3.4462912506        1.1724258369
 C          3.1508940077        2.2317934372        0.9006585981
 C          3.8770298665        1.1688578541        0.3782989264
 C          1.5464420243       -1.3615766785        1.2077031473
 N          0.3160576739       -1.6779298597        1.4754224360
 C         -0.6665070335       -0.9791262819        0.8733319842
 N         -1.9299737675       -1.3662167559        1.0888238938
 C         -2.8977477536       -0.6923575814        0.5100234230
 C         -4.2595079005       -1.2068765604        0.6842620432
 C         -4.5481719843       -2.0834228363        1.7322234366
 C         -5.8418810415       -2.5548371795        1.8595056494
 C         -6.7984573949       -2.1429617205        0.9431133430
 C         -6.4068614505       -1.2758532531       -0.0677402443
 N         -5.1780826916       -0.8188672441       -0.1963240205
 N         -3.7975253598        1.4449952266       -2.1222061788
 C         -4.7640407877        2.1978819423       -2.6145405610
 H         -6.4580850403        3.4764746447       -2.2818303677
 H         -6.2638695865        3.2819955586        0.1995142303
 H         -4.4544611504        1.8547296150        1.1420609275
 H          1.1726491784        1.2494323257       -0.9430849603
 H          2.5439010020       -2.5192828754       -0.7169651411
 H          4.0144833081       -4.2785383690       -1.5506522500
 H          6.4515461155       -3.8793226619       -1.7492892623
 H          7.3691026051       -1.6533947446       -1.1319966562
 H          6.9163850552        2.6496742941        0.2692118500
 H          5.5885766899        4.5639093176        1.1373211316
 H          3.1695244449        4.2538959947        1.5740101449
 H          2.1004789634        2.1114041682        1.1112183080
 H          2.3079624687       -1.9394642253        1.7166345083
 H         -3.7598089663       -2.3710897884        2.4084608348
 H         -6.1018175705       -3.2338223409        2.6588726743
 H         -7.8187131146       -2.4877672936        1.0064557523
 H         -7.1082575311       -0.9287209724       -0.8154081312
 H         -4.7961869303        2.2590045870       -3.6948140438
  54
  -92.5957944524000       8.474788328797139E-003 !
 C         -5.6945683580        3.0541430700       -1.5038728291
 C         -5.5938225051        2.7546335435       -0.1527853051
 C         -4.5900632332        1.9039452204        0.2671946360
 C         -3.7175602762        1.3803885784       -0.6899170243
 C         -2.6258854414        0.4867946081       -0.2610874677
 N         -1.3972069823        0.8443346640       -0.5271713439
 C         -0.3928157014        0.1026101790       -0.0192681099
 C          0.9461533683        0.4038481674       -0.3161105146
 C          1.9340578028       -0.3240878063        0.3128624311
 N          3.2959014631       -0.0862664233        0.0904534944
 C          4.1310699564       -1.1364665412       -0.3119152734
 C          3.6384132063       -2.3969311157       -0.6289528704
 C          4.4927781010       -3.4180297089       -1.0145021499
 C          5.8516000092       -3.1931731599       -1.1096128037
 C          6.3537296854       -1.9285028196       -0.8456135683
 C          5.5047877106       -0.9061972763       -0.4610658000
 O          6.0702734973        0.3253504610       -0.2578326945
 C          5.2339674717        1.3585249045        0.0783012361
 C          5.8203589947        2.6004648989        0.2453028915
 C          5.0570337539        3.6894247129        0.6349721676
 C          3.7090745214        3.5190169231        0.8786254643
 C          3.1154774110        2.2784137250        0.7051818406
 C          3.8570368629        1.1850154356        0.2746052092
 C          1.5421789289       -1.3302475037        1.2357057799
 N          0.3119969566       -1.6500750959        1.5008690479
 C         -0.6699238382       -0.9805920762        0.8655237436
 N         -1.9311986793       -1.3863331853        1.0543547935
 C         -2.8993947797       -0.7141203400        0.4752460379
 C         -4.2522204062       -1.2673264255        0.5793070923
 C         -4.5515317361       -2.2132648099        1.5617742389
 C         -5.8360049488       -2.7227580840        1.6161013320
 C         -6.7732173115       -2.2776600130        0.6953148711
 C         -6.3721390272       -1.3400779287       -0.2468019468
 N         -5.1521094213       -0.8473319234       -0.3065623465
 N         -3.7964351947        1.6880733306       -1.9758984174
 C         -4.7651869756        2.4955473603       -2.3666096734
 H         -6.4703786503        3.7064305664       -1.8735994764
 H         -6.2878947062        3.1773846454        0.5597338075
 H         -4.4732676656        1.6475308873        1.3098041783
 H          1.1666432890        1.1909467019       -1.0204660810
 H          2.5778298590       -2.5862062254       -0.5808042675
 H          4.0816649688       -4.3886402388       -1.2440864886
 H          6.5210788247       -3.9861058905       -1.4023598710
 H          7.4055864131       -1.7100481033       -0.9367674884
 H          6.8808644767        2.6890507078        0.0723654972
 H          5.5212400818        4.6549509926        0.7575286811
 H          3.1036151082        4.3492489729        1.2075491465
 H          2.0657410233        2.1640922406        0.9213805430
 H          2.3026502527       -1.8764441521        1.7798781758
 H         -3.7779037474       -2.5226371435        2.2454722865
 H         -6.1034151343       -3.4569053694        2.3623383938
 H         -7.7855644041       -2.6504984079        0.7026765116
 H         -7.0585554730       -0.9637071589       -0.9941310830
 H         -4.7921258772        2.7037058477       -3.4285438208
