  63
  -103.036635391600       0.206150598611326      !
 C          3.4558124282       -0.3586499531       -3.9215520047
 C          2.1310410395       -0.1264953697       -3.6146426011
 C          1.6839336170       -0.2427099874       -2.3067561088
 C          2.5613110929       -0.5942689504       -1.2906566025
 C          3.9067221763       -0.8246949326       -1.6091299677
 C          4.3448868571       -0.7080667245       -2.9134905805
 O          4.8393625820       -1.1719028940       -0.6588702092
 C          4.4093583690       -1.2707774559        0.6440081461
 C          5.3495222397       -1.5965857058        1.6017609470
 C          4.9802221632       -1.7068442433        2.9363458030
 C          3.6687170206       -1.4875883860        3.3041032422
 C          2.7191107468       -1.1604118256        2.3473700075
 C          3.0741951999       -1.0512869934        1.0098766023
 N          2.1453031661       -0.7164294687        0.0307220290
 C          0.7786751169       -0.5326475485        0.3755028359
 C         -0.0302445560       -1.6601998823        0.3078346045
 C         -1.4324202582       -1.6142044305        0.5049182520
 C         -2.4795996556       -2.5614563879        0.1424745978
 C         -2.1735345399       -3.9033187225       -0.0965312670
 C         -3.1380722298       -4.8111075550       -0.4736667345
 C         -4.4539301611       -4.3951084387       -0.6344935808
 C         -4.7883907046       -3.0771777224       -0.4161192817
 C         -3.8379474581       -2.1310745724       -0.0231083081
 C         -4.2108452387       -0.7346969893        0.1691823160
 C         -5.3269361592        0.0099474068       -0.3199610549
 C         -5.3413309640        1.3871804387       -0.3616486052
 C         -4.2316758679        2.1740118561        0.0722115600
 C         -3.8422745258        3.5088798966       -0.2521795334
 C         -2.5438230349        3.9482333755       -0.1153846900
 C         -1.4934791076        3.1114537307        0.3710908475
 C         -0.0453535728        3.2445514652        0.2817075540
 C          0.5309521677        4.4896824120        0.0179412569
 C          1.8943827497        4.6560054501       -0.0743444545
 C          2.7317212994        3.5636441505        0.1069138248
 C          2.1975699729        2.3191750992        0.3588124727
 C          0.8181196919        2.1077000522        0.4396281024
 C          0.2629574421        0.7723497444        0.6513175430
 C         -1.0761172022        0.7609791589        0.9816101975
 C         -1.9198861287        1.8991477443        0.8555132326
 C         -3.2441476721        1.4435905719        0.7114726676
 C         -3.2376361179        0.0370987411        0.7574221345
 C         -1.8901648147       -0.3835076603        0.9196787080
 H          3.8081687767       -0.2704557766       -4.9371009439
 H          1.4310913035        0.1482177112       -4.3888367770
 H          0.6467957182       -0.0597640528       -2.0710086917
 H          5.3858764777       -0.8941838906       -3.1240988636
 H          6.3676925999       -1.7603415338        1.2869695159
 H          5.7226515078       -1.9618957873        3.6759004043
 H          3.3708482268       -1.5676777611        4.3382726617
 H          1.6940292898       -0.9858052626        2.6360029443
 H          0.4457339211       -2.5800150673       -0.0024167686
 H         -1.1541551835       -4.2342593448        0.0367999235
 H         -2.8726659686       -5.8443242969       -0.6413677304
 H         -5.2134334824       -5.1046594660       -0.9275239149
 H         -5.8150689531       -2.7632516703       -0.5333829689
 H         -6.1641655434       -0.5178328417       -0.7545845593
 H         -6.1852115389        1.8822287952       -0.8223958957
 H         -4.5681674030        4.1709033279       -0.7041599125
 H         -2.3064202267        4.9412724088       -0.4699417561
 H         -0.1171770685        5.3461027402       -0.0945252708
 H          2.3099897669        5.6325102817       -0.2739066138
 H          3.8032835367        3.6871083583        0.0566744884
 H          2.8696557671        1.4946868374        0.5270239580
  63
  -103.036548552800       0.188051261405258      !
 C          3.4795324833       -0.6428451352       -3.9613282116
 C          2.1608519900       -0.3567742092       -3.6739557110
 C          1.7116208493       -0.3664595298       -2.3616515030
 C          2.5801886974       -0.6655991289       -1.3214092458
 C          3.9202505439       -0.9479309768       -1.6202190453
 C          4.3605397130       -0.9377619547       -2.9291094497
 O          4.8460143173       -1.2421506262       -0.6457616787
 C          4.4089509708       -1.2581636913        0.6583355630
 C          5.3362945734       -1.5595319820        1.6365414847
 C          4.9596871268       -1.5885093777        2.9731852947
 C          3.6532472667       -1.3149447698        3.3221940003
 C          2.7162844490       -1.0137167764        2.3447806651
 C          3.0793175463       -0.9826386745        1.0052990326
 N          2.1626268681       -0.6735224525        0.0051260787
 C          0.7903286389       -0.5004246888        0.3336750259
 C         -0.0119965440       -1.6310669660        0.2420299025
 C         -1.4139108247       -1.5995584337        0.4460015452
 C         -2.4586477185       -2.5435179055        0.0690451144
 C         -2.1443282726       -3.8733137905       -0.2217271374
 C         -3.1059004101       -4.7764910706       -0.6169333243
 C         -4.4279173287       -4.3679700906       -0.7428024356
 C         -4.7710612371       -3.0620636855       -0.4722076369
 C         -3.8234416866       -2.1206666196       -0.0611143414
 C         -4.2060514978       -0.7347968806        0.1812318275
 C         -5.3390100498        0.0139015937       -0.2616963688
 C         -5.3653315555        1.3916257048       -0.2643053630
 C         -4.2524201669        2.1758776693        0.1669531116
 C         -3.8785956853        3.5220415251       -0.1279076781
 C         -2.5811773375        3.9684489525       -0.0015707760
 C         -1.5157469855        3.1278119694        0.4439703374
 C         -0.0701687175        3.2747507177        0.3360731602
 C          0.4911944952        4.5320958300        0.0993283386
 C          1.8512844250        4.7131022640       -0.0123012013
 C          2.7002158116        3.6220593484        0.1150714181
 C          2.1809628732        2.3659475985        0.3386784161
 C          0.8053487272        2.1409932831        0.4467067294
 C          0.2659866291        0.7958155964        0.6358716789
 C         -1.0690774488        0.7648203597        0.9803528314
 C         -1.9241314680        1.8982654369        0.8991755329
 C         -3.2469211613        1.4359778373        0.7657854895
 C         -3.2281611842        0.0289805757        0.7719511145
 C         -1.8750508641       -0.3842321193        0.8995025706
 H          3.8335177017       -0.6381707427       -4.9801296131
 H          1.4675502314       -0.1226087480       -4.4671880802
 H          0.6800813144       -0.1393200793       -2.1401756208
 H          5.3969558635       -1.1630242361       -3.1237509110
 H          6.3500199514       -1.7700957289        1.3353165181
 H          5.6920900192       -1.8249179107        3.7287792801
 H          3.3491805344       -1.3331738645        4.3574806999
 H          1.6948591151       -0.8000275578        2.6191804128
 H          0.4697262196       -2.5414258557       -0.0869273958
 H         -1.1199420932       -4.1987073731       -0.1163975552
 H         -2.8333165175       -5.8003232081       -0.8260601189
 H         -5.1852322186       -5.0738581699       -1.0503202618
 H         -5.8022936238       -2.7543981057       -0.5625598041
 H         -6.1822925758       -0.5084880017       -0.6911262212
 H         -6.2241530814        1.8919059199       -0.6906799149
 H         -4.6172808973        4.1904633727       -0.5487852535
 H         -2.3582258310        4.9728224686       -0.3332496772
 H         -0.1661053166        5.3856003887        0.0236285296
 H          2.2552879958        5.6991473021       -0.1870105545
 H          3.7694421989        3.7555306542        0.0443048575
 H          2.8619615855        1.5405953539        0.4594353383
  63
  -103.036461748200       0.171547194059954      !
 C          3.5565452542        0.3573171385       -3.7153376909
 C          2.2213258409        0.5240942634       -3.4110588566
 C          1.7367227677        0.1671632111       -2.1618637736
 C          2.5872288954       -0.3527247518       -1.1957091375
 C          3.9375097848       -0.5398790293       -1.5205383364
 C          4.4136886558       -0.1847828482       -2.7676433543
 O          4.8396385619       -1.0814347772       -0.6354130012
 C          4.3672382701       -1.4555937029        0.6003842031
 C          5.2727334918       -2.0180713425        1.4791340326
 C          4.8700981259       -2.3977982401        2.7525737027
 C          3.5605680676       -2.2021292184        3.1404670802
 C          2.6459806523       -1.6403428610        2.2619764660
 C          3.0301826829       -1.2717902211        0.9793865232
 N          2.1385875667       -0.6969762651        0.0779508918
 C          0.7785910147       -0.5058066896        0.4326569261
 C         -0.0269362290       -1.6399511306        0.4486964800
 C         -1.4267212887       -1.5876435270        0.6500845385
 C         -2.4671137536       -2.5680640532        0.3614597153
 C         -2.1551338362       -3.9249690882        0.2509354253
 C         -3.1134874972       -4.8669946749       -0.0511700084
 C         -4.4277778454       -4.4715800397       -0.2663332191
 C         -4.7676662183       -3.1400599120       -0.1743490361
 C         -3.8243427126       -2.1591602056        0.1425715006
 C         -4.2035383342       -0.7525618774        0.2084218765
 C         -5.3126955773       -0.0563893855       -0.3607598167
 C         -5.3296535014        1.3124573402       -0.5185013503
 C         -4.2298725763        2.1373750832       -0.1326749500
 C         -3.8381292297        3.4411105817       -0.5631221815
 C         -2.5437146746        3.8968023699       -0.4400881669
 C         -1.5009213880        3.1103064059        0.1368252692
 C         -0.0513782207        3.2481755665        0.0772047785
 C          0.5287063963        4.4738593826       -0.2583931135
 C          1.8943230144        4.6437146631       -0.3044292193
 C          2.7295252207        3.5793228087        0.0069215819
 C          2.1915182149        2.3526426147        0.3278597628
 C          0.8114658480        2.1339139843        0.3497004142
 C          0.2557077922        0.8107353382        0.6281386222
 C         -1.0870324444        0.8184318213        0.9423119031
 C         -1.9321369993        1.9400189184        0.7125483411
 C         -3.2519411408        1.4675306963        0.5834226774
 C         -3.2421428852        0.0694401219        0.7460398006
 C         -1.8958261562       -0.3303153065        0.9616717294
 H          3.9392352584        0.6374060021       -4.6840324029
 H          1.5414512969        0.9337858383       -4.1420861374
 H          0.6894091636        0.2947354601       -1.9366638583
 H          5.4596130285       -0.3390095575       -2.9797982238
 H          6.2916787392       -2.1478382477        1.1511326428
 H          5.5847773240       -2.8367567672        3.4304080985
 H          3.2363947268       -2.4831634948        4.1304513843
 H          1.6256193431       -1.4814713863        2.5741525842
 H          0.4499240088       -2.5768677641        0.1960097460
 H         -1.1368321700       -4.2389019987        0.4273892053
 H         -2.8443272191       -5.9106959879       -0.1178064573
 H         -5.1823733450       -5.2075507696       -0.5007407076
 H         -5.7935752383       -2.8415163960       -0.3314549074
 H         -6.1405955030       -0.6223217816       -0.7640245110
 H         -6.1661995146        1.7637376996       -1.0343091571
 H         -4.5575532131        4.0589297062       -1.0830111190
 H         -2.3022104539        4.8572376289       -0.8732426331
 H         -0.1183760283        5.3137743059       -0.4635888010
 H          2.3129625593        5.6050142344       -0.5629305606
 H          3.8012843324        3.7116014131        0.0039606268
 H          2.8568413885        1.5504757676        0.6023965780
  63
  -103.036399424100       0.160598485571644      !
 C          3.5124933286       -0.9548509671       -3.9849359486
 C          2.1856071727       -0.6752701396       -3.7302403176
 C          1.7262477308       -0.5860907408       -2.4245787332
 C          2.5915638478       -0.7808499972       -1.3569388855
 C          3.9410832434       -1.0507303399       -1.6236773365
 C          4.3917520402       -1.1394682621       -2.9262325784
 O          4.8681542146       -1.2315649484       -0.6234633375
 C          4.4219830210       -1.1516312710        0.6747914182
 C          5.3510272344       -1.3446554994        1.6788100584
 C          4.9655153965       -1.2794293709        3.0114570248
 C          3.6475005591       -1.0251482919        3.3302621803
 C          2.7093109377       -0.8321199900        2.3271931173
 C          3.0822844554       -0.8884770831        0.9911497241
 N          2.1641137565       -0.6864383952       -0.0366456992
 C          0.7895464795       -0.5139368242        0.2766590517
 C         -0.0192181221       -1.6363985586        0.1462310474
 C         -1.4200707613       -1.6064693976        0.3591675795
 C         -2.4737841834       -2.5322165001       -0.0375133812
 C         -2.1686130149       -3.8497468876       -0.3877632132
 C         -3.1405299602       -4.7355193389       -0.7967110400
 C         -4.4642957311       -4.3211229373       -0.8769012261
 C         -4.7984800172       -3.0258078793       -0.5500295855
 C         -3.8400367769       -2.1022539716       -0.1240931484
 C         -4.2146676189       -0.7262851463        0.1795359783
 C         -5.3532013472        0.0421580573       -0.2116140813
 C         -5.3764373057        1.4189905166       -0.1555046114
 C         -4.2547201805        2.1826409431        0.2892391575
 C         -3.8839224010        3.5405768692        0.0484480553
 C         -2.5835380415        3.9790955194        0.1697324391
 C         -1.5109380226        3.1176056548        0.5553725065
 C         -0.0682255158        3.2645993138        0.4180867272
 C          0.4880802710        4.5288616133        0.2059296871
 C          1.8437461534        4.7129869331        0.0548575323
 C          2.6933430193        3.6167300354        0.1152296322
 C          2.1792326167        2.3547237747        0.3159686497
 C          0.8077340982        2.1259268128        0.4656984355
 C          0.2710991118        0.7753125008        0.6230578609
 C         -1.0595216690        0.7336376595        0.9831506954
 C         -1.9134554904        1.8703234196        0.9643561461
 C         -3.2397065690        1.4164808279        0.8363255244
 C         -3.2239976022        0.0108208365        0.7825246007
 C         -1.8701801473       -0.4096520294        0.8687319828
 H          3.8743249861       -1.0276440756       -4.9982878543
 H          1.4934615689       -0.5237165432       -4.5444414654
 H          0.6887564113       -0.3621348057       -2.2294547007
 H          5.4351946488       -1.3530997095       -3.0945649096
 H          6.3732397425       -1.5457653205        1.4002174651
 H          5.6993785615       -1.4296273575        3.7873632313
 H          3.3349286700       -0.9750228756        4.3617155088
 H          1.6791266201       -0.6357440170        2.5802854013
 H          0.4578246225       -2.5380109055       -0.2125131001
 H         -1.1428148318       -4.1804570197       -0.3179038302
 H         -2.8747657892       -5.7507104801       -1.0513439214
 H         -5.2298325340       -5.0141267042       -1.1929575511
 H         -5.8306723168       -2.7130891944       -0.6065541758
 H         -6.2046791804       -0.4602285099       -0.6488368000
 H         -6.2411514406        1.9380954644       -0.5460552691
 H         -4.6293211644        4.2282833038       -0.3271725720
 H         -2.3653066507        4.9971781615       -0.1203549196
 H         -0.1699391228        5.3847132916        0.1789985133
 H          2.2436795426        5.7037338523       -0.1013428635
 H          3.7595986760        3.7501445443        0.0093760685
 H          2.8640581624        1.5268900000        0.3813254834
  63
  -103.036325554100       0.148522805481605      !
 C          3.4430158863       -1.3679475616       -3.9817285139
 C          2.1335811588       -1.0063468788       -3.7390320986
 C          1.7018658661       -0.7655089064       -2.4434676729
 C          2.5754106196       -0.8904868407       -1.3712401036
 C          3.9095251229       -1.2338462243       -1.6292031906
 C          4.3330469019       -1.4752672677       -2.9219696159
 O          4.8493804870       -1.3396954050       -0.6312062960
 C          4.4306158872       -1.1116740152        0.6580454950
 C          5.3750842851       -1.2286497908        1.6597874118
 C          5.0198493498       -1.0186272232        2.9853240670
 C          3.7144102525       -0.7010062371        3.3003287996
 C          2.7611696743       -0.5852243360        2.3000644026
 C          3.1053593044       -0.7785206062        0.9685603434
 N          2.1727883711       -0.6450425230       -0.0606230994
 C          0.7990720557       -0.4853842427        0.2567610834
 C         -0.0051507330       -1.6078408850        0.0942151986
 C         -1.4062478127       -1.5907556412        0.3023905335
 C         -2.4535266665       -2.5071331232       -0.1306121452
 C         -2.1387139078       -3.8064042936       -0.5366431663
 C         -3.1035220303       -4.6799076914       -0.9865574241
 C         -4.4300952049       -4.2715818535       -1.0507219406
 C         -4.7737892071       -2.9940087453       -0.6685964993
 C         -3.8222746838       -2.0826414794       -0.2025450781
 C         -4.2055504378       -0.7215887003        0.1525280894
 C         -5.3492456082        0.0527108870       -0.2112001223
 C         -5.3810156529        1.4265327824       -0.1081701193
 C         -4.2633361138        2.1814541570        0.3608089521
 C         -3.9012997508        3.5486172659        0.1641218846
 C         -2.6037535716        3.9910425559        0.2996654726
 C         -1.5258275180        3.1239013185        0.6562374471
 C         -0.0846600189        3.2848009532        0.5214481627
 C          0.4617701418        4.5604329889        0.3573214196
 C          1.8150373149        4.7603807212        0.2061653789
 C          2.6707650996        3.6674678452        0.2099929943
 C          2.1660431563        2.3948638484        0.3617772324
 C          0.7981724173        2.1503446939        0.5208352733
 C          0.2718595372        0.7911313074        0.6392000750
 C         -1.0577438290        0.7293947432        1.0018345955
 C         -1.9192330283        1.8606139385        1.0221950882
 C         -3.2430516538        1.4035822076        0.8810224302
 C         -3.2188405673        0.0006040221        0.7798952920
 C         -1.8626449471       -0.4141547056        0.8516288487
 H          3.7828408972       -1.5614744877       -4.9868308357
 H          1.4341062377       -0.9074663373       -4.5547287656
 H          0.6786037385       -0.4763967352       -2.2605179293
 H          5.3646228428       -1.7459800607       -3.0810099243
 H          6.3849544731       -1.4861047032        1.3836836887
 H          5.7655696239       -1.1099842401        3.7592307862
 H          3.4232983415       -0.5416582237        4.3271617726
 H          1.7417827764       -0.3408033318        2.5532584379
 H          0.4761738843       -2.4973123442       -0.2884663200
 H         -1.1106760245       -4.1324659001       -0.4805211200
 H         -2.8299970250       -5.6807037459       -1.2861783703
 H         -5.1900730170       -4.9551350730       -1.3990782724
 H         -5.8081559090       -2.6866120076       -0.7129349301
 H         -6.1984785326       -0.4399064871       -0.6634580638
 H         -6.2497100796        1.9531818352       -0.4790095261
 H         -4.6512059274        4.2433757256       -0.1885212235
 H         -2.3918220653        5.0194274559        0.0434121367
 H         -0.2023130240        5.4118668747        0.3698220155
 H          2.2079558375        5.7596654251        0.0914983827
 H          3.7352443394        3.8113212404        0.0988796553
 H          2.8567922981        1.5703318938        0.3788793975
  63
  -103.036073332400       0.113731319123488      !
 C          3.3094686875        0.3987920584       -3.7139836022
 C          1.9781249384        0.4768577701       -3.3611305586
 C          1.5654546840        0.0950200425       -2.0937446446
 C          2.4843899286       -0.3609128422       -1.1581949661
 C          3.8309327860       -0.4597223903       -1.5324346252
 C          4.2356766721       -0.0794602943       -2.7972341044
 O          4.7978435901       -0.9360002782       -0.6788566095
 C          4.3928979286       -1.3523152785        0.5676972042
 C          5.3612033548       -1.8650161299        1.4087908379
 C          5.0263084702       -2.2821786682        2.6903010557
 C          3.7208676466       -2.1755967597        3.1241180846
 C          2.7430354180       -1.6639573551        2.2837601161
 C          3.0608591934       -1.2569135038        0.9949029124
 N          2.1056511481       -0.7333386367        0.1304883923
 C          0.7595894814       -0.5476953730        0.5371414834
 C         -0.0552111397       -1.6742681287        0.5552198399
 C         -1.4580681204       -1.6021822956        0.7241554116
 C         -2.4935833040       -2.5764180869        0.4005868330
 C         -2.1910321157       -3.9379386539        0.3276068378
 C         -3.1400640655       -4.8732182719       -0.0210351470
 C         -4.4336086360       -4.4656970642       -0.3227008133
 C         -4.7642231174       -3.1301119201       -0.2631398617
 C         -3.8311078679       -2.1558015092        0.1015570625
 C         -4.1958018343       -0.7445168985        0.1304568537
 C         -5.2658114380       -0.0484086579       -0.5093498292
 C         -5.2586518895        1.3165807051       -0.6936157955
 C         -4.1701540839        2.1357897710       -0.2666223075
 C         -3.7421161663        3.4234430418       -0.7091708741
 C         -2.4493675880        3.8656566985       -0.5344707998
 C         -1.4478687733        3.0809601464        0.1125820769
 C          0.0044073799        3.2006853913        0.1103115718
 C          0.6174576766        4.4094562661       -0.2278881785
 C          1.9865276658        4.5570482938       -0.2190784598
 C          2.7909708417        3.4888546868        0.1541409104
 C          2.2202800195        2.2778914857        0.4782200080
 C          0.8373031087        2.0812806884        0.4418721064
 C          0.2487182110        0.7735101049        0.7222277787
 C         -1.1031385371        0.8049211574        0.9946083094
 C         -1.9215917431        1.9323856108        0.7003347005
 C         -3.2395310004        1.4716027035        0.5156965973
 C         -3.2553835984        0.0763523903        0.7068266816
 C         -1.9258067191       -0.3345910000        0.9975922775
 H          3.6359328535        0.6986753596       -4.6971912156
 H          1.2447416396        0.8343242129       -4.0675865291
 H          0.5204698927        0.1528884277       -1.8318900593
 H          5.2808065817       -0.1640921398       -3.0486783841
 H          6.3750518977       -1.9251365507        1.0465489779
 H          5.7904899208       -2.6803069325        3.3389180803
 H          3.4501857038       -2.4867564663        4.1214158293
 H          1.7249981617       -1.5724720433        2.6293812874
 H          0.4128719884       -2.6168373320        0.3075977866
 H         -1.1887609392       -4.2600338607        0.5693610755
 H         -2.8796868061       -5.9205458113       -0.0584194213
 H         -5.1799655419       -5.1959589437       -0.5983407906
 H         -5.7756083622       -2.8232751427       -0.4851762581
 H         -6.0765547202       -0.6139413419       -0.9466180500
 H         -6.0605625024        1.7672532593       -1.2623016756
 H         -4.4268032134        4.0350787736       -1.2807153847
 H         -2.1721656080        4.8099469203       -0.9813847637
 H         -0.0059480664        5.2547388136       -0.4790966536
 H          2.4314104174        5.5054270394       -0.4814637616
 H          3.8635880366        3.6057954858        0.1961267245
 H          2.8594652371        1.4726920615        0.8028059545
  63
  -103.033899468600       1.139833574672544E-002 !
 C          3.6404568502       -2.0424309737       -3.8437912034
 C          2.3270411002       -1.6328145969       -3.7308837090
 C          1.8384665064       -1.1692580844       -2.5192279905
 C          2.6529726179       -1.1202047071       -1.3942675870
 C          3.9972459641       -1.4914324432       -1.5328773590
 C          4.4787595119       -1.9573234341       -2.7421726930
 O          4.8974777370       -1.4014425740       -0.5001803717
 C          4.4321305732       -0.9286308276        0.7023586613
 C          5.3551407449       -0.8120937643        1.7251345419
 C          4.9609170146       -0.3676702316        2.9783286487
 C          3.6339229051       -0.0635988919        3.2028196292
 C          2.7048741387       -0.1781413685        2.1805466267
 C          3.0888831258       -0.5880202968        0.9096814417
 N          2.1853621463       -0.6692610002       -0.1581384868
 C          0.8034216724       -0.5036641570        0.0905457324
 C         -0.0155015076       -1.6070844303       -0.1275124227
 C         -1.4156306294       -1.5900345995        0.0994959933
 C         -2.4897090900       -2.4535500159       -0.3739696855
 C         -2.2022725162       -3.6923310147       -0.9537979879
 C         -3.1918460164       -4.5070001907       -1.4566568094
 C         -4.5191523056       -4.0998853179       -1.3974693502
 C         -4.8377987112       -2.8808824540       -0.8424261921
 C         -3.8605996971       -2.0279501573       -0.3213075152
 C         -4.2245152098       -0.7178654267        0.2046144138
 C         -5.3942797695        0.0808316412        0.0160006014
 C         -5.4220000522        1.4355275220        0.2701011538
 C         -4.2726956526        2.1497408932        0.7275121350
 C         -3.9267601290        3.5342948433        0.6631594771
 C         -2.6224486380        3.9707716205        0.7448470534
 C         -1.5173209134        3.0785119448        0.9077808080
 C         -0.0951938371        3.2567882479        0.6519434795
 C          0.4302812321        4.5471048310        0.5374228487
 C          1.7512900560        4.7737317514        0.2275492415
 C          2.5906966960        3.6923367259       -0.0037560621
 C          2.1085460754        2.4072894120        0.1049514243
 C          0.7807194023        2.1324296389        0.4525412706
 C          0.2795361094        0.7612063445        0.5352107668
 C         -1.0256887905        0.6641272113        0.9667372661
 C         -1.8829350908        1.7802106616        1.1588825586
 C         -3.2132763396        1.3302906407        1.0744017232
 C         -3.1953556296       -0.0539851649        0.8274814156
 C         -1.8397122769       -0.4657699579        0.7680699347
 H          4.0228809269       -2.4153781029       -4.7806721475
 H          1.6682924144       -1.6701611798       -4.5848381165
 H          0.8133297531       -0.8413437411       -2.4451425092
 H          5.5163028049       -2.2450797323       -2.8012657184
 H          6.3795152832       -1.0788689094        1.5198686013
 H          5.6895266178       -0.2727293630        3.7677293813
 H          3.3057211130        0.2668916871        4.1762289027
 H          1.6720754924        0.0575268597        2.3777144066
 H          0.4556494787       -2.4905900091       -0.5351640592
 H         -1.1733697268       -4.0177352125       -0.9974159167
 H         -2.9371952221       -5.4602662036       -1.8956307427
 H         -5.2986281008       -4.7371489640       -1.7880602621
 H         -5.8719327897       -2.5729523245       -0.7961874324
 H         -6.2770748953       -0.3683590198       -0.4169629115
 H         -6.3206323171        1.9876505297        0.0307587651
 H         -4.7025115928        4.2594467724        0.4581416806
 H         -2.4342433074        5.0249029059        0.5975386173
 H         -0.2254756160        5.3871469447        0.7115997611
 H          2.1296725203        5.7827254448        0.1586026709
 H          3.6253563082        3.8550362242       -0.2669782021
 H          2.7865004513        1.5940789133       -0.0839770805
