  32
  -50.5635652200000        1.00000000000000      !
 C         -5.3344762474        0.6226963476       -0.0115906613
 C         -4.5980691299        1.8042651146       -0.0074453290
 C         -3.2163428295        1.7849736912        0.0010546951
 C         -2.5678352986        0.5577864401        0.0044136239
 C         -3.3270555956       -0.6351461208        0.0000502243
 C         -4.7118481060       -0.6122845636       -0.0077119337
 N         -2.4682116353       -1.7073323170        0.0024303848
 C         -1.1722124997       -1.2572453108        0.0057949273
 C         -0.0000316278       -1.9947170275        0.0038534989
 C          1.1721504987       -1.2571678983        0.0040278891
 N          2.4680451028       -1.7073023315       -0.0017479816
 C          3.3269119277       -0.6351750994       -0.0032596470
 C          4.7116661012       -0.6124227885       -0.0117619163
 C          5.3345629968        0.6224944744       -0.0114090570
 C          4.5983281939        1.8041362207       -0.0020946663
 C          3.2165752603        1.7850483598        0.0061431434
 C          2.5678659760        0.5579286637        0.0046859435
 C          1.1837677855        0.1658441125        0.0088271584
 C         -0.0000184539        0.8855202639        0.0117546593
 C         -1.1837804138        0.1657348914        0.0088410981
 H         -6.4134710492        0.6718885095       -0.0188726015
 H         -5.1200729228        2.7498929347       -0.0112025591
 H         -2.6499312271        2.7040830736        0.0040596640
 H         -5.2855246110       -1.5277691006       -0.0119202532
 H         -2.7460486503       -2.6733449791       -0.0016921857
 H         -0.0000074802       -3.0745880877        0.0005817646
 H          2.7458550719       -2.6732750771       -0.0092574491
 H          5.2852736202       -1.5279000015       -0.0191513646
 H          6.4136969079        0.6715920878       -0.0186373739
 H          5.1204670249        2.7494659268       -0.0011950279
 H          2.6502888069        2.7042378954        0.0134775909
 H         -0.0001004523        1.9642238646        0.0145931856
