  96
       -153.30473043
 N         -1.6410260567        5.9327623368       -2.0714179566
 C         -2.1138336429        4.9497027946       -1.7141416353
 C         -2.7034799383        3.7391997806       -1.2923301330
 C         -3.6589431300        3.1387153080       -2.0882699055
 C         -4.2218200375        1.9213163752       -1.7104777552
 C         -3.8539250159        1.3163193099       -0.5272566297
 N         -4.3510253566        0.0436016403       -0.2156136025
 C         -3.5671600138       -1.0905479812       -0.1015319338
 C         -2.1137035092       -1.0592975531       -0.1806704060
 C         -1.3737516269       -1.7750694333        0.7585858138
 C          0.0030988646       -1.6934555955        0.7712525042
 C          0.6750822368       -0.9032714461       -0.1584589637
 C          2.1427355205       -0.7661445382       -0.1106516064
 C          2.9606637368       -1.8872013975       -0.3173055085
 C          2.4221870168       -3.1630996615       -0.6306189947
 C          3.2269589506       -4.2496315551       -0.7869096811
 C          4.6226608291       -4.1311240538       -0.6336870357
 C          5.1835805179       -2.9196022893       -0.3703068018
 C          4.3813243071       -1.7573029093       -0.2307047328
 C          4.9420617486       -0.4927878852       -0.0000784307
 N          6.3406353077       -0.3559565917        0.0568700495
 C          7.2126887769       -0.5498469525       -0.9919906046
 C          6.9386691416       -0.8929384007       -2.3081540836
 C          8.0068400109       -1.0111348379       -3.1754991412
 C          9.3159723635       -0.7892541251       -2.7510876310
 C          9.5920093802       -0.4367440925       -1.4451961223
 C          8.5354614264       -0.3122447319       -0.5521196847
 C          8.4443937209        0.0362165475        0.8383897788
 C          9.3802386925        0.3628146268        1.8115920965
 C          8.9363430936        0.6428781993        3.0885401354
 C          7.5798061423        0.5950040355        3.4057125113
 C          6.6292613588        0.2723461908        2.4570798676
 C          7.0700969780        0.0011028335        1.1697152937
 C          4.1313258135        0.6387392705        0.1718190597
 C          4.6823113959        1.9334124975        0.3562005302
 C          3.8807069029        3.0158796439        0.5498518277
 C          2.4807334327        2.8635582490        0.5888772390
 C          1.9136968963        1.6415243596        0.3942078217
 C          2.7098576606        0.4922031259        0.1456878619
 C         -0.0646588805       -0.2343460668       -1.1300383261
 C         -1.4420671490       -0.3118396581       -1.1453598243
 N         -4.2814216845       -2.1620817616        0.1077663473
 C         -5.5799808479       -1.7530222120        0.1251943414
 C         -6.7471984772       -2.5525041733        0.2735196577
 C         -6.6617014736       -3.9413580680        0.4169147122
 C         -7.8019516905       -4.6986326937        0.5158366850
 C         -9.0459150432       -4.0722485675        0.4677697592
 C         -9.1413440092       -2.7067237020        0.3348125452
 C         -7.9993761665       -1.8964090196        0.2415778030
 C         -8.0666859848       -0.4487922081        0.1401042940
 C         -9.2872708463        0.2387001522        0.2003408921
 C         -9.3544326726        1.6111233389        0.1551951134
 C         -8.1889329319        2.3660510318        0.0678693935
 C         -6.9733516515        1.7317924030       -0.0025673064
 C         -6.8862542103        0.3325070697        0.0075836138
 C         -5.6543178914       -0.3752752102       -0.0648933691
 C         -2.9158328963        1.9334176414        0.3447626841
 C         -2.5664867298        1.3814115585        1.5948708532
 C         -1.6258473234        1.9827303010        2.3833574823
 C         -1.0009508056        3.1673787499        1.9669926890
 C         -1.3449862100        3.7476181692        0.7773626050
 C         -2.3118268853        3.1520701481       -0.0570155409
 H         -3.9541869529        3.6019836042       -3.0178293131
 H         -4.9444020778        1.4394445938       -2.3525661710
 H         -1.8974124108       -2.3776188645        1.4846091997
 H          0.5703131369       -2.2270457349        1.5199309654
 H          1.3535467648       -3.2570824502       -0.7497260468
 H          2.8010144426       -5.2126697816       -1.0260155802
 H          5.2437913522       -5.0084127698       -0.7352014261
 H          6.2534418018       -2.8300258739       -0.2623660798
 H          5.9249024495       -1.0638710155       -2.6384293173
 H          7.8242862235       -1.2803114193       -4.2052683410
 H         10.1236862886       -0.8930074247       -3.4600104713
 H         10.6061898590       -0.2591723013       -1.1204754524
 H         10.4319774873        0.3942797876        1.5700657399
 H          9.6480824626        0.9006573381        3.8585281991
 H          7.2660076299        0.8140870230        4.4156393474
 H          5.5786539131        0.2349187022        2.7039333094
 H          5.7546397695        2.0507745852        0.3359440766
 H          4.3116442940        3.9970137836        0.6819291000
 H          1.8590748024        3.7282644951        0.7674381492
 H          0.8407071540        1.5326309571        0.4298734401
 H          0.4506573517        0.3493187462       -1.8790382100
 H         -1.9940755938        0.2018179815       -1.9179973125
 H         -5.6793281950       -4.3870269399        0.4370202129
 H         -7.7411802428       -5.7712352960        0.6239303784
 H         -9.9463268647       -4.6651966281        0.5358718624
 H        -10.1252046968       -2.2668170076        0.2986435307
 H        -10.2085759079       -0.3124225427        0.2961726401
 H        -10.3132801621        2.1052567051        0.2038535121
 H         -8.2383978058        3.4447219585        0.0611570512
 H         -6.0702629729        2.3200743603       -0.0465225212
 H         -3.0559300898        0.4796962162        1.9285405380
 H         -1.3611255280        1.5494759061        3.3357477268
 H         -0.2553431185        3.6239935420        2.6001220233
 H         -0.8856907742        4.6712508874        0.4564716961
