96
 energy: -153.365356193806 gnorm: 0.000041990139 xtb: 6.7.1 (edcfbbe)
N           -2.45475907583969        6.45707342685160       -1.68861290150428
C           -2.79019630382028        5.39497950450968       -1.40888703737676
C           -3.21606939504964        4.08760798060746       -1.09123428026777
C           -3.92388058981668        3.36536127239450       -2.03222742232182
C           -4.34218377836049        2.06584554339948       -1.74896947615312
C           -4.06505771970278        1.49265797760965       -0.52628700789156
N           -4.45010176245065        0.16193882797431       -0.28064786063213
C           -3.58068693886111       -0.90098808393919       -0.13388002869800
C           -2.13037153865754       -0.79526964881372       -0.17282694116124
C           -1.45659843849460        0.06500709914473       -1.03748192416897
C           -0.07683411654010        0.12589830540852       -1.02655353144905
C            0.66524454316483       -0.67267931544938       -0.16114796938261
C            2.14138086582325       -0.59769041705705       -0.14678653820193
C            2.77507849097782        0.55531926393480        0.34131778815126
C            2.03905997173072        1.66164301119840        0.84257500996876
C            2.66712824459441        2.76486238400276        1.33381544808612
C            4.07469291163028        2.82599408889965        1.37164878342378
C            4.81958345459053        1.78447012593927        0.91033051685820
C            4.20295839269382        0.62354075255016        0.37437792998237
C            4.95218741258007       -0.46189110623203       -0.10134020498843
N            6.36101579261739       -0.39698568571124       -0.07303445139616
C            7.18391202820993       -1.13922732936076        0.74562026111047
C            6.84476185836868       -2.06956775787578        1.71773632997692
C            7.87339323803362       -2.67239815243095        2.41531425491216
C            9.20749408757073       -2.35740272970056        2.15968908949988
C            9.54884157309693       -1.42428822530927        1.20066323061606
C            8.53299805208854       -0.80386624917997        0.48372593169783
C            8.50980573583835        0.18985792493434       -0.55352033197779
C            9.49535484881081        0.89279978468793       -1.23568104934275
C            9.11193073875502        1.79591307528777       -2.20740517256413
C            7.76605464280060        2.00112387616485       -2.50881069163624
C            6.76694988384714        1.31389342179752       -1.84720570038171
C            7.14755013626925        0.41234717182479       -0.86335285624045
C            4.32645845461188       -1.61131796509811       -0.60506219711270
C            5.06902655911767       -2.70385123369937       -1.12474850155353
C            4.44300053376174       -3.80727392665509       -1.61774726808415
C            3.03560345946737       -3.88057732828242       -1.62927423118577
C            2.28827658209731       -2.84762755401203       -1.15203246060506
C            2.89826952909855       -1.68088459907214       -0.61917611256915
C           -0.00856947552742       -1.55099544353891        0.68499948680529
C           -1.38625525252854       -1.61499645371467        0.67705870783365
N           -4.21459823837727       -2.02995662861703        0.05507702047513
C           -5.54081144400159       -1.72836519718412        0.02951781328466
C           -6.64232008035313       -2.62108213301934        0.15380495240155
C           -6.44741154508279       -3.99743368313105        0.31458885802428
C           -7.52360649889699       -4.84509977174103        0.40241405409816
C           -8.81365119397556       -4.32265576270298        0.32769714338212
C           -9.01699740439536       -2.97078502424959        0.17494838482956
C           -7.94318942709742       -2.07056257342768        0.08868205930300
C           -8.12610656719509       -0.63442186405616       -0.03955583961016
C           -9.40188178966712       -0.05153020003865       -0.03362406354204
C           -9.58349769175638        1.30933653090073       -0.11066635661389
C           -8.48309359465667        2.15822415472826       -0.18072323107852
C           -7.21677102441936        1.62740308274326       -0.19797233016771
C           -7.01036161866223        0.24111808584265       -0.14961320132673
C           -5.72082968687278       -0.36125630402279       -0.16762981434109
C           -3.36114571897905        2.21309433161943        0.47649822693704
C           -3.10026651297418        1.67503435860433        1.75425886138931
C           -2.41779115091798        2.40104410167087        2.69050813011814
C           -1.96609310352019        3.69576392603874        2.39461979589270
C           -2.21444264525421        4.25141493196112        1.16947224959948
C           -2.92092514649325        3.53120282045167        0.18538307728180
H           -4.14559246530519        3.80300463908041       -2.99402838023493
H           -4.88583802868785        1.50086174766729       -2.49194953022591
H           -2.00497268107470        0.67284802172652       -1.74068344473063
H            0.43594400830137        0.79178180000084       -1.70553383706659
H            0.96113947939475        1.61008936098372        0.82970633903767
H            2.09142441554078        3.59884718538190        1.70707847634428
H            4.55714505668699        3.70323417850726        1.77684066287044
H            5.89756784089348        1.82945633673962        0.95100142775277
H            5.81168731743786       -2.31334569485010        1.91709008069196
H            7.64002100448337       -3.40295442777951        3.17633483018273
H            9.98350318889378       -2.85180645315027        2.72581520510795
H           10.58295683950859       -1.17830519356686        1.00946985521399
H           10.53888502252154        0.73222911879672       -1.00830072633194
H            9.86372602529364        2.35320634534809       -2.74718021667122
H            7.49964470169323        2.71214177358701       -3.27749176506202
H            5.72487309724939        1.47292047361192       -2.08231920850091
H            6.14715977319439       -2.64569342796407       -1.13008187043239
H            5.02080050145554       -4.63010586044894       -2.01206043665012
H            2.55523124635034       -4.76075754616820       -2.03078892122938
H            1.21036887091428       -2.89945023116307       -1.17908222201381
H            0.55786858778830       -2.17990201216731        1.35615496949787
H           -1.91070852385609       -2.29572545771739        1.32994291068228
H           -5.43259264844922       -4.36249123345731        0.35899875144984
H           -7.37630077677865       -5.90807958158383        0.52451694800286
H           -9.66404040987879       -4.98633201758656        0.38992843940489
H          -10.03275409906021       -2.61330484158453        0.11959371888849
H          -10.27623420050532       -0.67714756101213        0.04215718254540
H          -10.58214786203111        1.72064789836455       -0.10344339196624
H           -8.62236745046523        3.22860017179419       -0.21684903810220
H           -6.36618386861605        2.28929178153406       -0.23302052256433
H           -3.45240311210259        0.68183532515175        1.98973213432774
H           -2.22468884241930        1.97971789753692        3.66530798226784
H           -1.42522753329570        4.25408711551942        3.14354852336752
H           -1.87855502814106        5.25175957247285        0.93696666375259
