  90
  -145.106928850000       0.334855529704909      !
 N        -10.9352822525       -1.9232489015       -0.5216961924
 C         -9.9357576848       -1.3749620454       -0.3742994961
 C         -8.7214463044       -0.7001763675       -0.1918542929
 N         -7.5736497102       -1.3298559225       -0.3552336883
 C         -6.4405912669       -0.7242938572       -0.1886028238
 C         -6.4414668300        0.7263268424        0.1976040850
 N         -7.5755668796        1.3329466661        0.3530529295
 C         -8.7223884936        0.7042516023        0.1790363590
 C         -9.9380529163        1.3798358140        0.3484653215
 N        -10.9404713301        1.9252924967        0.4855739939
 C         -5.0875912662        1.1379181735        0.3061957603
 C         -4.4494830091        2.3349698024        0.6176461825
 C         -3.0642246700        2.3685161194        0.5466409649
 C         -2.2763882309        1.2661579231        0.2112088248
 C         -0.8523979966        1.4781172045       -0.0576489078
 C         -0.3085918341        1.0693019443       -1.2780254680
 C          1.0073544100        1.3196285586       -1.5924834470
 C          1.8422023949        1.9722927747       -0.6811980398
 N          3.1850310354        2.2085868116       -0.9748314297
 C          3.8285248346        3.3291620854       -0.4262315183
 C          3.1864403555        4.5661901916       -0.3895729140
 C          3.8250423823        5.6624493144        0.1570590489
 C          5.1072165783        5.5435859438        0.6690244440
 C          5.7499713401        4.3165268019        0.6311439048
 C          5.1191122737        3.2134551097        0.0895163654
 C          3.9205247934        1.3427432563       -1.7902150523
 C          3.6801579867       -0.0314466909       -1.7847259174
 C          4.4283788672       -0.8735050169       -2.5833733509
 C          5.4292063247       -0.3664358044       -3.3958359968
 C          5.6697193970        0.9981605055       -3.4100593773
 C          4.9233369800        1.8491327345       -2.6194095603
 C          1.3006966039        2.3877878727        0.5397452483
 C         -0.0250882517        2.1580550115        0.8351301045
 C         -2.8964288765        0.0006020693        0.0125990805
 C         -2.2757001864       -1.2646985602       -0.1844846697
 C         -0.8510291445       -1.4764062889        0.0811345200
 C         -0.0282201969       -2.1574811924       -0.8149479474
 C          1.2985488737       -2.3882823617       -0.5253669620
 C          1.8457872216       -1.9724747893        0.6928203745
 N          3.1900691548       -2.2107089612        0.9795460359
 C          3.8256190735       -3.3338854446        0.4265071653
 C          3.1804803342       -4.5696549962        0.4022625464
 C          3.8083695961       -5.6684445446       -0.1515117636
 C          5.0828413884       -5.5532253391       -0.6832425571
 C          5.7288577156       -4.3276080767       -0.6571415557
 C          5.1088120289       -3.2220528495       -0.1079679245
 C          3.9344306912       -1.3422166321        1.7833486573
 C          3.6895950258        0.0312677131        1.7812779761
 C          4.4466557558        0.8760471338        2.5686496305
 C          5.4613226549        0.3727557701        3.3660847039
 C          5.7066938226       -0.9910103439        3.3766981763
 C          4.9513376679       -1.8448065216        2.5976817417
 C          1.0156595400       -1.3187082974        1.6075264115
 C         -0.3016057357       -1.0673826733        1.2988187160
 C         -3.0625750624       -2.3678160045       -0.5196543744
 C         -4.4475297217       -2.3344597503       -0.5952009231
 C         -5.0864024461       -1.1366668702       -0.2887766202
 C         -4.2953226673        0.0005410415        0.0104903582
 H         -5.0134684166        3.2186417891        0.8711218897
 H         -2.5626208063        3.3118710180        0.7135659773
 H         -0.9441388558        0.5787026655       -2.0000832021
 H          1.3966079091        1.0268101120       -2.5561373009
 H          2.1909079081        4.6595931719       -0.7980109742
 H          3.3212779241        6.6172049950        0.1762242596
 H          5.6031000770        6.4027951323        1.0937812254
 H          6.7469848161        4.2148793248        1.0330493930
 H          5.6145914819        2.2537887366        0.0695153241
 H          2.9047042570       -0.4343646550       -1.1533774401
 H          4.2345907107       -1.9360607021       -2.5639295951
 H          6.0135471076       -1.0285251630       -4.0160320786
 H          6.4395167702        1.4051946019       -4.0486139880
 H          5.1067456214        2.9131900746       -2.6439181494
 H          1.9312733054        2.8884046503        1.2599087451
 H         -0.4213140317        2.4815280787        1.7864269382
 H         -0.4289284418       -2.4810709380       -1.7642992800
 H          1.9253106301       -2.8900635938       -1.2480206641
 H          2.1908679173       -4.6597981444        0.8256480826
 H          3.3020211547       -6.6220287752       -0.1620180442
 H          5.5695820478       -6.4138605902       -1.1156036129
 H          6.7198175169       -4.2288097587       -1.0743761434
 H          5.6066736452       -2.2634515011       -0.0973076592
 H          2.9038203065        0.4318227018        1.1613200973
 H          4.2491504496        1.9379567301        2.5515941581
 H          6.0528804549        1.0370565319        3.9770112739
 H          6.4877640196       -1.3951887712        4.0031521293
 H          5.1389514007       -2.9081769712        2.6197283852
 H          1.4094890512       -1.0259848690        2.5693618092
 H         -0.9336716144       -0.5766297677        2.0238164387
 H         -2.5603553707       -3.3112742187       -0.6837718391
 H         -5.0108365803       -3.2183410784       -0.8492290629
  90
  -145.106926540000       0.334037998375753      !
 N        -10.9405952144       -1.8869919370        0.6013217022
 C         -9.9382009795       -1.3529676950        0.4249420889
 C         -8.7223038409       -0.6921277262        0.2066934847
 N         -7.5748553368       -1.3078540526        0.4158948175
 C         -6.4413765889       -0.7123102436        0.2184460593
 C         -6.4421282570        0.7109229311       -0.2589057338
 N         -7.5759161271        1.3044881269       -0.4594707476
 C         -8.7229564162        0.6866387055       -0.2524218183
 C         -9.9386459614        1.3483830909       -0.4697373843
 N        -10.9402401706        1.8850538907       -0.6442272813
 C         -5.0881826338        1.1167796587       -0.3873531886
 C         -4.4506417594        2.2932125758       -0.7698943640
 C         -3.0656792288        2.3332072077       -0.6956458950
 C         -2.2780932763        1.2547183997       -0.2898259504
 C         -0.8547649326        1.4840493479       -0.0309257987
 C         -0.0251245820        2.1047567660       -0.9636351339
 C          1.3004373241        2.3512849554       -0.6808471469
 C          1.8387906020        2.0147239458        0.5654263001
 N          3.1818126336        2.2669706663        0.8464330711
 C          3.8288883005        3.3474661382        0.2267303752
 C          3.1870424590        4.5789727218        0.1018345561
 C          3.8274516136        5.6347589125       -0.5174039120
 C          5.1119305489        5.4814922014       -1.0142848826
 C          5.7550828093        4.2606526823       -0.8875837750
 C          5.1220188890        3.1973745928       -0.2737596277
 C          3.9144679447        1.4496247724        1.7129488097
 C          4.9210403542        2.0011907362        2.5080493115
 C          5.6656652189        1.1967245283        3.3475820548
 C          5.4192786288       -0.1651045988        3.4173360983
 C          4.4139804463       -0.7161882418        2.6399164219
 C          3.6677820903        0.0788687841        1.7926917681
 C          1.0012053842        1.4234190243        1.5151691818
 C         -0.3143148242        1.1542129076        1.2144376673
 C         -2.8971369745        0.0032284890       -0.0147008740
 C         -2.2754613794       -1.2463789732        0.2637464038
 C         -0.8503648185       -1.4737433150        0.0143878642
 C         -0.2978817777       -1.1396038301       -1.2246522626
 C          1.0198484590       -1.4100079351       -1.5149424798
 C          1.8476785672       -2.0084076941       -0.5610721028
 N          3.1920460980       -2.2652427748       -0.8305068895
 C          3.8267338384       -3.3515424079       -0.2073225221
 C          3.1808730050       -4.5828596243       -0.1044197377
 C          3.8082936879       -5.6449100509        0.5174209890
 C          5.0834783741       -5.4974899939        1.0393999689
 C          5.7303584747       -4.2764910328        0.9351781250
 C          5.1104027434       -3.2072496538        0.3182892502
 C          3.9394308385       -1.4483796636       -1.6843345399
 C          3.6985502153       -0.0766856017       -1.7656380984
 C          4.4605088358        0.7171646055       -2.5999921698
 C          5.4760535001        0.1641001914       -3.3625033915
 C          5.7168908949       -1.1986654110       -3.2911733164
 C          4.9565364281       -2.0019069847       -2.4647706866
 C          1.2973874992       -2.3491290281        0.6789559043
 C         -0.0296048719       -2.0998800245        0.9515926538
 C         -3.0625376538       -2.3263174310        0.6672059167
 C         -4.4477632053       -2.2899595882        0.7360963652
 C         -5.0872361301       -1.1154797316        0.3505675319
 C         -4.2960242776        0.0014119582       -0.0172841944
 H         -5.0150287739        3.1583468723       -1.0800070984
 H         -2.5643625962        3.2649569122       -0.9189443577
 H         -0.4191457080        2.3673369915       -1.9343721123
 H          1.9329176958        2.8034562925       -1.4307453440
 H          2.1897508857        4.7002894058        0.4984516569
 H          3.3231519729        6.5853412967       -0.6057698655
 H          5.6090263299        6.3091854745       -1.4963239606
 H          6.7541358146        4.1317487735       -1.2764335524
 H          5.6180101384        2.2418609176       -0.1853417061
 H          5.1092105561        3.0638904119        2.4673155089
 H          6.4389876248        1.6385328980        3.9580698676
 H          6.0025892795       -0.7908107331        4.0751385102
 H          4.2154052966       -1.7770278204        2.6858539294
 H          2.8889250256       -0.3585441109        1.1891433723
 H          1.3881663374        1.1924734481        2.4963802879
 H         -0.9516079944        0.7104054198        1.9646523241
 H         -0.9277237945       -0.6922248237       -1.9790668503
 H          1.4157934045       -1.1754266972       -2.4917386765
 H          2.1906923311       -4.6988420776       -0.5200736637
 H          3.3011786200       -6.5954313854        0.5884713074
 H          5.5703164163       -6.3298009647        1.5239314509
 H          6.7217882919       -4.1524364764        1.3445358717
 H          5.6090960730       -2.2516885631        0.2471062772
 H          2.9123813741        0.3626242928       -1.1730501850
 H          4.2664308601        1.7787947459       -2.6470581022
 H          6.0718527203        0.7890122332       -4.0097922974
 H          6.4984691877       -1.6419349944       -3.8899142624
 H          5.1407879338       -3.0652347301       -2.4226638419
 H          1.9221018092       -2.8067801881        1.4320286111
 H         -0.4320230143       -2.3650006853        1.9181820397
 H         -2.5603153745       -3.2570322016        0.8925484029
 H         -5.0106414541       -3.1565317087        1.0448128351
  90
  -145.106918210000       0.331106471919337      !
 N        -10.9444434252       -1.1889367347        1.5406183830
 C         -9.9420142059       -0.8550665209        1.0878997787
 C         -8.7249055974       -0.4432339120        0.5292456422
 N         -7.5794783562       -0.8237225690        1.0619425359
 C         -6.4441668214       -0.4550447674        0.5585741245
 C         -6.4397584504        0.4258395016       -0.6569789024
 N         -7.5716075181        0.7927194315       -1.1694728708
 C         -8.7207268291        0.4105578630       -0.6459635490
 C         -9.9342441200        0.8205903645       -1.2137439531
 N        -10.9345915579        1.1524207722       -1.6730248867
 C         -5.0844364882        0.6815173071       -0.9916022079
 C         -4.4419706109        1.4169948773       -1.9832520582
 C         -3.0572985570        1.4940332185       -1.9386602940
 C         -2.2740481311        0.8526498502       -0.9777262986
 C         -0.8523919287        1.1930972885       -0.8891312902
 C         -0.0137574069        1.1643892869       -2.0024108489
 C          1.3106469877        1.5306117852       -1.9029441958
 C          1.8392749543        1.9734951028       -0.6860596486
 N          3.1821187254        2.3380849899       -0.5887431223
 C          3.9011274387        2.1709699884        0.5991876592
 C          4.9047921211        3.0792792918        0.9410687183
 C          5.6329660344        2.9087431252        2.1017946621
 C          5.3732294681        1.8395918696        2.9441325997
 C          4.3723650032        0.9404588633        2.6148992419
 C          3.6425511546        1.0989531802        1.4534790599
 C          3.8452063690        2.8549559175       -1.7127684410
 C          5.1381749337        2.4319856561       -2.0199746445
 C          5.7873111262        2.9380231225       -3.1293052236
 C          5.1606144978        3.8656409634       -3.9459930344
 C          3.8763959145        4.2891766484       -3.6432793924
 C          3.2197781264        3.7920051402       -2.5342165924
 C          0.9917697115        2.0389047245        0.4234986406
 C         -0.3222868701        1.6439283603        0.3224918690
 C         -2.8975631435       -0.0081434455       -0.0312412991
 C         -2.2802456961       -0.8649801307        0.9228246929
 C         -0.8551408620       -1.1954809260        0.8562245488
 C         -0.2987823729       -1.6382824914       -0.3465236512
 C          1.0194571305       -2.0254452099       -0.4234077790
 C          1.8441773654       -1.9616423161        0.7031795120
 N          3.1899835760       -2.3211355774        0.6338629932
 C          3.8279826395       -2.8418357027        1.7709690235
 C          3.1891402429       -3.7909160359        2.5677126152
 C          3.8213341679       -4.2932451786        3.6885798452
 C          5.0938920388       -3.8622693858        4.0277854116
 C          5.7334816381       -2.9218319776        3.2362013992
 C          5.1088342448       -2.4108827409        2.1150988991
 C          3.9365874067       -2.1493039328       -0.5359222016
 C          3.6947332797       -1.0777001914       -1.3956937579
 C          4.4536269235       -0.9146776674       -2.5377935036
 C          5.4672344548       -1.8084734064       -2.8418101324
 C          5.7102460695       -2.8774466153       -1.9941750060
 C          4.9530432944       -3.0526440035       -0.8529740946
 C          1.2893102558       -1.5261673031        1.9111641215
 C         -0.0381891346       -1.1661399572        1.9857134683
 C         -3.0713952486       -1.5107599547        1.8745376223
 C         -4.4566604879       -1.4402398707        1.9039671269
 C         -5.0914655744       -0.7071740889        0.9056562511
 C         -4.2963669740       -0.0115643283       -0.0390708875
 H         -5.0024792146        1.9407285819       -2.7413338926
 H         -2.5530209429        2.1237183605       -2.6587542713
 H         -0.3995695178        0.8191554354       -2.9503207292
 H          1.9498628199        1.4689859600       -2.7715186711
 H          5.1035036815        3.9212654768        0.2945218145
 H          6.4039321678        3.6212875036        2.3544585487
 H          5.9429591451        1.7105432537        3.8514545539
 H          4.1642949914        0.1021052811        3.2635394849
 H          2.8670062304        0.3933901352        1.2029139730
 H          5.6211567555        1.6997678411       -1.3895804008
 H          6.7858939841        2.5991781747       -3.3614566495
 H          5.6703449567        4.2571933957       -4.8128340408
 H          3.3851020182        5.0177041315       -4.2706668797
 H          2.2227033287        4.1288897917       -2.2913850465
 H          1.3703977709        2.4172949098        1.3612146384
 H         -0.9670996483        1.7146750207        1.1857437347
 H         -0.9262419856       -1.7103950216       -1.2222966932
 H          1.4184057885       -2.3980786867       -1.3549851382
 H          2.2010655533       -4.1326105888        2.2965609038
 H          3.3202486512       -5.0314429419        4.2965608025
 H          5.5846098877       -4.2579308945        4.9036941230
 H          6.7226767527       -2.5766810174        3.4974879896
 H          5.6012562585       -1.6685686578        1.5040704316
 H          2.9096709965       -0.3759108003       -1.1646037105
 H          4.2581771352       -0.0768286070       -3.1910321128
 H          6.0598933850       -1.6754872835       -3.7337368950
 H          6.4909351201       -3.5860597803       -2.2273456484
 H          5.1387329073       -3.8946083016       -0.2025566355
 H          1.9110574120       -1.4650655338        2.7923331921
 H         -0.4437193612       -0.8244807265        2.9266243290
 H         -2.5722067732       -2.1383576461        2.5999620165
 H         -5.0231616772       -1.9664151007        2.6558835812
