  46
        -74.45731345
 C         -0.4441383744       -5.2522545837        2.4818500022
 C         -0.7708062956       -4.4874621498        1.2052399284
 C          0.4186646374       -4.4745348721        0.2482272006
 C          0.1282485244       -3.7081473656       -1.0496960862
 N         -0.0599474207       -2.3037304269       -0.8072705491
 C          0.9555139073       -1.4171668077       -0.5984138666
 C          2.3415159440       -1.6080299494       -0.6300395891
 C          3.1548533405       -0.5323618079       -0.3904594043
 C          2.6400261650        0.7636268787       -0.1134944255
 C          3.4486651601        1.8900120712        0.1335190724
 C          4.8385373290        1.9791961581        0.1581622148
 C          5.4357815155        3.2218594910        0.4302926049
 N          5.9195246915        4.2411906534        0.6527161958
 C          5.7661167734        0.9544171092       -0.0612001515
 N          6.5826636825        0.1591920927       -0.2303156423
 C          1.2254759795        0.9409170859       -0.0866570936
 C          0.4104008116       -0.1287771066       -0.3260794743
 C         -1.0302053704       -0.2905578869       -0.3779879262
 C         -2.0675171371        0.5801634967       -0.1997913175
 C         -3.4054120619        0.1025362062       -0.3214135580
 C         -4.5371530605        0.9164465068       -0.1588165947
 C         -4.5933797628        2.2828495511        0.1409326227
 C         -5.8500144021        2.8954679393        0.2565907062
 N         -6.8875212226        3.3848592394        0.3479505789
 C         -3.5202511070        3.1526560103        0.3504708035
 N         -2.6772997438        3.9176008141        0.5348689856
 C         -3.6025787558       -1.2762245097       -0.6274190578
 C         -2.5669270279       -2.1509107463       -0.8054807492
 C         -1.2581151959       -1.6654548182       -0.6788823581
 H         -1.3006641584       -5.2567810019        3.1507054315
 H         -0.1806954782       -6.2825663482        2.2540875376
 H          0.3930042318       -4.7906890618        3.0003262213
 H         -1.0500880258       -3.4630295220        1.4621409935
 H         -1.6275261516       -4.9551514604        0.7146079351
 H          1.2786213519       -4.0218619186        0.7461663617
 H          0.6838836757       -5.4998606583       -0.0152762716
 H         -0.7717897581       -4.1054658257       -1.5228887255
 H          0.9658639226       -3.8297709984       -1.7424039881
 H          2.7703928454       -2.5756779151       -0.8397251287
 H          4.2223754333       -0.6726235571       -0.4140636543
 H          2.9279884813        2.8191623977        0.3314401238
 H          0.8129852962        1.9164800194        0.1208630315
 H         -1.8788604922        1.6146429988        0.0295801672
 H         -5.5011534557        0.4372188846       -0.2777653787
 H         -4.6172946082       -1.6331569043       -0.7208694485
 H         -2.7621340981       -3.1868281998       -1.0356621431
  46
        -74.45729510
 C          0.4459079055       -5.1503987453        2.5084114259
 C          0.7386416999       -4.3182311654        1.2661688155
 C         -0.3200317256       -4.5421846045        0.1891656590
 C         -0.0605528853       -3.7174981379       -1.0791491794
 N         -0.1787642803       -2.3066411237       -0.8298582296
 C          0.8528657825       -1.4430046902       -0.6076617307
 C          2.2364167580       -1.6564500066       -0.6205656587
 C          3.0658322624       -0.5973395272       -0.3656370146
 C          2.5719912230        0.7077251202       -0.0912749244
 C          3.3969114733        1.8175303650        0.1722216232
 C          4.7883653212        1.8788436157        0.2263258833
 C          5.4039773086        3.1095271170        0.5102372426
 N          5.9004276080        4.1228964426        0.7320106058
 C          5.6990087521        0.8343695057        0.0319669110
 N          6.5028951954        0.0213328879       -0.1124111924
 C          1.1603653949        0.9099439559       -0.0837242237
 C          0.3293256062       -0.1437934882       -0.3369903045
 C         -1.1137383333       -0.2755118943       -0.4026342521
 C         -2.1371289669        0.6130829216       -0.2307816927
 C         -3.4815868071        0.1585867283       -0.3655848279
 C         -4.6007317215        0.9916499565       -0.2068291932
 C         -4.6359006222        2.3568243550        0.0975117802
 C         -5.8831670161        2.9887879699        0.2137769935
 N         -6.9127982531        3.4951404897        0.3017530396
 C         -3.5494876702        3.2084747815        0.3146211721
 N         -2.6948942901        3.9632251886        0.4862892050
 C         -3.7011684670       -1.2144254701       -0.6804851300
 C         -2.6792498597       -2.1069598290       -0.8534428384
 C         -1.3647622623       -1.6432940367       -0.7107729640
 H          1.2070013351       -4.9813725479        3.2653115444
 H         -0.5208822962       -4.8831187741        2.9289772334
 H          0.4330772628       -6.2103232684        2.2650313474
 H          1.7210145189       -4.5898732429        0.8737826767
 H          0.7688260583       -3.2613804695        1.5409700545
 H         -0.3369757769       -5.5971596974       -0.0899409732
 H         -1.3025514381       -4.2840128851        0.5899221020
 H         -0.7843809882       -3.9942188942       -1.8513636044
 H          0.9427372599       -3.9228700899       -1.4568084344
 H          2.6534721024       -2.6303167837       -0.8239997482
 H          4.1307183192       -0.7578063856       -0.3745134321
 H          2.8910079982        2.7568486619        0.3600030373
 H          0.7622479802        1.8917811320        0.1222349356
 H         -1.9330270121        1.6433991851        0.0040225578
 H         -5.5719205994        0.5288872753       -0.3329979604
 H         -4.7213367041       -1.5522185252       -0.7856348293
 H         -2.8872289402       -3.1380012269       -1.0952691355
  46
        -74.45683762
 C          0.2494644806       -6.5773678390       -1.7119882160
 C          0.1821449926       -5.8608778387       -0.3693949176
 C          0.0309650632       -4.3532832061       -0.5510950835
 C         -0.0335095393       -3.6285118335        0.7987399303
 N         -0.1728931554       -2.2097815125        0.6197294041
 C          0.8610985097       -1.3339997452        0.4682692786
 C          2.2429360813       -1.5527306368        0.5006970155
 C          3.0784794550       -0.4824758697        0.3230078741
 C          2.5905914005        0.8360777910        0.1089602105
 C          3.4223181491        1.9569732409       -0.0746227999
 C          4.8146006156        2.0194249432       -0.0859522971
 C          5.4377193882        3.2616993583       -0.2903010773
 N          5.9432197447        4.2801377737       -0.4602142776
 C          5.7201188465        0.9669086241        0.0881387744
 N          6.5197805818        0.1483742042        0.2236987097
 C          1.1794855269        1.0410305688        0.0761667682
 C          0.3422096225       -0.0236472107        0.2515673445
 C         -1.1019029389       -0.1624071464        0.2673923823
 C         -2.1233262081        0.7312084813        0.1115301667
 C         -3.4694938946        0.2658803537        0.1741594635
 C         -4.5865153653        1.1040506331        0.0294359746
 C         -4.6177174366        2.4865243639       -0.1837263258
 C         -5.8629983777        3.1213204773       -0.3042322096
 N         -6.8913768701        3.6281499082       -0.4021491216
 C         -3.5289791743        3.3552700391       -0.2963278672
 N         -2.6738065087        4.1220007498       -0.3974594397
 C         -3.6931785744       -1.1249431273        0.3939140512
 C         -2.6734764706       -2.0225729272        0.5518368482
 C         -1.3573250468       -1.5463089218        0.4916927252
 H         -0.6569479634       -6.4005652327       -2.2863029464
 H          1.0976915025       -6.2226151752       -2.2925510147
 H          0.3587088300       -7.6484079686       -1.5647260942
 H          1.0911700346       -6.0683008722        0.1991101346
 H         -0.6636155080       -6.2441759520        0.2055969176
 H          0.8761762865       -3.9657925565       -1.1242481053
 H         -0.8798650456       -4.1401338675       -1.1152800807
 H          0.8783534778       -3.8228868049        1.3685512142
 H         -0.8844687797       -3.9953082179        1.3779009705
 H          2.6519105089       -2.5388102894        0.6576177430
 H          4.1429058908       -0.6445753234        0.3454395197
 H          2.9216891094        2.9053024366       -0.2279105626
 H          0.7875388080        2.0331385073       -0.0881787908
 H         -1.9164914325        1.7736261964       -0.0586649722
 H         -5.5591312788        0.6310488678        0.0888363150
 H         -4.7146232590       -1.4723773305        0.4362035914
 H         -2.8849818583       -3.0682569001        0.7149733396
  46
        -74.45671789
 C         -0.1989516031       -6.5389557227        1.9254910838
 C         -0.0194142163       -5.8606944253        0.5730728626
 C         -0.1067466879       -4.3421845647        0.6979766477
 C          0.0274699765       -3.6559788638       -0.6670705732
 N         -0.1069038308       -2.2305316191       -0.5451579120
 C          0.9185960515       -1.3447267118       -0.3942197056
 C          2.3024618201       -1.5534880533       -0.3801354116
 C          3.1263521053       -0.4703371386       -0.2269150725
 C          2.6249199815        0.8526080485       -0.0826849214
 C          3.4433933075        1.9890435682        0.0614239126
 C          4.8345602060        2.0678827285        0.0833056483
 C          5.4410229773        3.3262597013        0.2351942332
 N          5.9356890212        4.3571766255        0.3565581078
 C          5.7532597036        1.0187936416       -0.0327295090
 N          6.5631303560        0.2036946608       -0.1203630078
 C          1.2121205810        1.0467286537       -0.0863848366
 C          0.3866242302       -0.0303867921       -0.2392274362
 C         -1.0558064595       -0.1778262155       -0.2871741795
 C         -2.0860286696        0.7131135748       -0.1813826985
 C         -3.4274625744        0.2367609319       -0.2626519104
 C         -4.5531845793        1.0691244849       -0.1578854998
 C         -4.5994484528        2.4540633194        0.0372089611
 C         -5.8523775323        3.0797900246        0.1200201656
 N         -6.8873687734        3.5781007281        0.1868110967
 C         -3.5199328631        3.3315982568        0.1678194247
 N         -2.6706754755        4.1030331930        0.2824914768
 C         -3.6371549058       -1.1599088452       -0.4582322064
 C         -2.6085142015       -2.0548120307       -0.5649179765
 C         -1.2974718533       -1.5689294421       -0.4760474427
 H         -1.1702169544       -6.2947146871        2.3498798386
 H         -0.1328238516       -7.6184773784        1.8197503799
 H          0.5705950987       -6.2142992949        2.6218622228
 H         -0.7915081109       -6.2131427202       -0.1146932044
 H          0.9500789104       -6.1360276298        0.1527639431
 H         -1.0657230808       -4.0664140391        1.1427297666
 H          0.6832725984       -3.9804738234        1.3598437771
 H         -0.7480424084       -4.0244862798       -1.3443233407
 H          1.0014604650       -3.8829103923       -1.1055766407
 H          2.7227160092       -2.5418709635       -0.4843738929
 H          4.1921090090       -0.6251834069       -0.2154949644
 H          2.9311555922        2.9378406712        0.1660637314
 H          0.8091313220        2.0412781835        0.0292448877
 H         -1.8898400119        1.7612048897       -0.0354180370
 H         -5.5208964004        0.5884099745       -0.2334176865
 H         -4.6550969051       -1.5143115861       -0.5219165888
 H         -2.8088681138       -3.1051082701       -0.7113141934
  46
        -74.45653987
 C          1.8654906451       -5.1917678367        1.2177819240
 C          0.6412502223       -4.3350597059        1.5182019937
 C         -0.4670374228       -4.4979508574        0.4771857377
 C         -0.1819686258       -3.7549995057       -0.8372058303
 N         -0.2739332908       -2.3305095726       -0.6661338805
 C          0.7695775600       -1.4732514363       -0.4779412260
 C          2.1505096630       -1.7056179227       -0.4770743801
 C          2.9942395109       -0.6490583789       -0.2633567744
 C          2.5187870728        0.6738543121       -0.0471600352
 C          3.3587903737        1.7807746128        0.1745062590
 C          4.7511605266        1.8215588105        0.2416506744
 C          5.3847892696        3.0545284366        0.4696222827
 N          5.8992499977        4.0661046149        0.6578269974
 C          5.6454118178        0.7535703569        0.1108884669
 N          6.4357282656       -0.0797152237        0.0136173065
 C          1.1100057770        0.8968426525       -0.0594669957
 C          0.2648250343       -0.1547398075       -0.2705905365
 C         -1.1794923328       -0.2668902021       -0.3415960798
 C         -2.1897203383        0.6447400183       -0.2185160534
 C         -3.5399332679        0.2060266060       -0.3435891079
 C         -4.6471077616        1.0630700882       -0.2294642594
 C         -4.6628398838        2.4385070821        0.0217264005
 C         -5.9004284074        3.0956838947        0.0977739202
 N         -6.9221236679        3.6216293361        0.1583768980
 C         -3.5647625228        3.2804762706        0.2187172367
 N         -2.7003247669        4.0239281039        0.3897764698
 C         -3.7792861948       -1.1753300837       -0.6001939527
 C         -2.7706462617       -2.0913498404       -0.7225912178
 C         -1.4501195147       -1.6430753993       -0.5882171579
 H          2.3029366041       -4.9459378579        0.2532730462
 H          2.6258937210       -5.0385583587        1.9788745730
 H          1.5980286010       -6.2460696497        1.2090897477
 H          0.9314514835       -3.2842355224        1.5880477398
 H          0.2441403365       -4.6264225945        2.4923435788
 H         -0.5970724867       -5.5574234987        0.2506395038
 H         -1.4074532840       -4.1230336590        0.8865569728
 H         -0.9121727133       -4.0587151941       -1.5928236753
 H          0.8144562000       -4.0024108525       -1.2042481283
 H          2.5563716627       -2.6916190881       -0.6387584276
 H          4.0565668867       -0.8255941846       -0.2611896889
 H          2.8671329082        2.7359916665        0.3134168043
 H          0.7254133029        1.8927699493        0.0990233767
 H         -1.9705479111        1.6813049058       -0.0292127982
 H         -5.6243140752        0.6108550743       -0.3472899051
 H         -4.8038086482       -1.5012182224       -0.7004511269
 H         -2.9940358854       -3.1287271182       -0.9194401209
  46
        -74.45652367
 C          1.3113991652       -6.3565684255        0.3604217498
 C          0.0054073053       -5.8223836968        0.9368941751
 C         -0.0597357214       -4.2964098767        0.9685864425
 C         -0.1017168116       -3.6819773824       -0.4369234289
 N         -0.2325098416       -2.2529347026       -0.3682922626
 C          0.8077804716       -1.3782269396       -0.2595536327
 C          2.1872255972       -1.6129051910       -0.2416484498
 C          3.0310819360       -0.5402149213       -0.1292392320
 C          2.5539821698        0.7958913686       -0.0322348400
 C          3.3945396898        1.9201282915        0.0773184872
 C          4.7867249363        1.9702237722        0.1135041282
 C          5.4195520315        3.2197410946        0.2258562067
 N          5.9329063026        4.2446989036        0.3172070325
 C          5.6836187205        0.8979359361        0.0507668878
 N          6.4761419537        0.0626921100        0.0037664544
 C          1.1450900407        1.0168352863       -0.0475430728
 C          0.2994856866       -0.0499895511       -0.1582121574
 C         -1.1453700395       -0.1753362285       -0.1990014169
 C         -2.1594794066        0.7379862174       -0.1399364513
 C         -3.5092218954        0.2829728826       -0.2025103476
 C         -4.6192748127        1.1413469315       -0.1558121106
 C         -4.6395043603        2.5362702920       -0.0466166184
 C         -5.8796988035        3.1917085264       -0.0205436064
 N         -6.9038265449        3.7159790020       -0.0007909167
 C         -3.5439077131        3.3988761130        0.0443116819
 N         -2.6815590875        4.1602088971        0.1236023551
 C         -3.7440275930       -1.1184868869       -0.3194453911
 C         -2.7316598033       -2.0360673350       -0.3793073440
 C         -1.4116943779       -1.5699815005       -0.3217907357
 H          1.3494658039       -7.4376986258        0.4648997294
 H          1.4056753777       -6.1210536900       -0.6967642089
 H          2.1630429289       -5.9343993497        0.8891880864
 H         -0.1028844795       -6.1861140148        1.9603799992
 H         -0.8357535598       -6.2109417803        0.3586116879
 H         -0.9559647767       -3.9840238106        1.5100346825
 H          0.8074092275       -3.9031359252        1.5036616639
 H         -0.9501595072       -4.0873683549       -0.9935344498
 H          0.8149438307       -3.9189292609       -0.9799063575
 H          2.5880243176       -2.6123198373       -0.3113460268
 H          4.0937926491       -0.7140363860       -0.1139751888
 H          2.9014944906        2.8825880953        0.1413693498
 H          0.7612522123        2.0226855015        0.0288920795
 H         -1.9443412289        1.7883838256       -0.0465068949
 H         -5.5955981073        0.6756370576       -0.2119453095
 H         -4.7681986962       -1.4578298836       -0.3615806291
 H         -2.9518381621       -3.0891874847       -0.4648702180
  46
        -74.45652116
 C          1.3140656728       -6.3577752823        0.3448494371
 C          0.0171480187       -5.8214918352        0.9394532215
 C         -0.0458918149       -4.2954378673        0.9706230259
 C         -0.1032896052       -3.6820360161       -0.4347920252
 N         -0.2346736530       -2.2530578198       -0.3656945205
 C          0.8059333703       -1.3783993606       -0.2592713486
 C          2.1853811475       -1.6132556693       -0.2452515921
 C          3.0295930149       -0.5408640269       -0.1325922980
 C          2.5527920085        0.7949971865       -0.0310876815
 C          3.3936310816        1.9186285656        0.0826787792
 C          4.7858812109        1.9685883408        0.1154106459
 C          5.4187481724        3.2169751223        0.2394561123
 N          5.9321308559        4.2408455882        0.3422409999
 C          5.6827716004        0.8972812144        0.0375022731
 N          6.4752577876        0.0627181482       -0.0212091482
 C          1.1439311239        1.0162383537       -0.0441748154
 C          0.2979835095       -0.0502446974       -0.1556255763
 C         -1.1469541873       -0.1753991200       -0.1940472264
 C         -2.1607677936        0.7382072064       -0.1343205148
 C         -3.5107079979        0.2835012439       -0.1950480583
 C         -4.6204769827        1.1422999849       -0.1501564889
 C         -4.6402202462        2.5379412789       -0.0499940108
 C         -5.8802801988        3.1936003044       -0.0232945205
 N         -6.9042218220        3.7184259450       -0.0037677249
 C         -3.5441914008        3.4010579457        0.0297468470
 N         -2.6813079534        4.1628832497        0.0984298084
 C         -3.7459845464       -1.1181802079       -0.3085175034
 C         -2.7339096193       -2.0359862312       -0.3696009910
 C         -1.4137012096       -1.5700632704       -0.3160826926
 H          2.1737512184       -5.9353339635        0.8601347892
 H          1.3528286046       -7.4387298360        0.4508413818
 H          1.3928502779       -6.1243433881       -0.7140455836
 H         -0.0769164337       -6.1840456952        1.9647404115
 H         -0.8325979873       -6.2096719721        0.3736803679
 H         -0.9355420240       -3.9816866096        1.5220239605
 H          0.8276941005       -3.9027155374        1.4954721642
 H         -0.9571365857       -4.0885396365       -0.9821398019
 H          0.8078734459       -3.9185276042       -0.9872394103
 H          2.5858591894       -2.6125681537       -0.3181192445
 H          4.0923220313       -0.7147845838       -0.1200763665
 H          2.9006808148        2.8805565131        0.1550036427
 H          0.7603836339        2.0220232253        0.0345300560
 H         -1.9452640848        1.7886110745       -0.0417809215
 H         -5.5970226842        0.6764622910       -0.2011330648
 H         -4.7703040187       -1.4574148811       -0.3478138190
 H         -2.9545429611       -3.0891785173       -0.4530795885
  46
        -74.45649066
 C         -0.8676585320       -6.5706309507       -0.1794434559
 C          0.3089801640       -5.8205950860       -0.7929148208
 C          0.0930785890       -4.3096443320       -0.8570559179
 C          0.0572229018       -3.6621615876        0.5337513142
 N         -0.0938898345       -2.2371878284        0.4308228790
 C          0.9293550475       -1.3436510502        0.3150627925
 C          2.3137069875       -1.5482054805        0.3240013299
 C          3.1360374330       -0.4605397073        0.1971777535
 C          2.6320482805        0.8619151290        0.0583858800
 C          3.4498881865        2.0010875144       -0.0673769098
 C          4.8410713264        2.0810891430       -0.0789438492
 C          5.4486324762        3.3405035582       -0.2173105953
 N          5.9409745972        4.3735585865       -0.3307479491
 C          5.7597518001        1.0316142138        0.0344116098
 N          6.5697202272        0.2167581788        0.1236524857
 C          1.2186764335        1.0521341564        0.0453813977
 C          0.3944863711       -0.0296288552        0.1710802117
 C         -1.0478896940       -0.1848580547        0.1919219159
 C         -2.0802520024        0.7039690286        0.0899581750
 C         -3.4207492356        0.2211102731        0.1421429526
 C         -4.5480882835        1.0527076365        0.0486480938
 C         -4.5967910834        2.4420940862       -0.1109200856
 C         -5.8503594965        3.0684481839       -0.1783581612
 N         -6.8850949744        3.5689430704       -0.2324577153
 C         -3.5188353262        3.3246636142       -0.2193120677
 N         -2.6712409171        4.1006325028       -0.3145609388
 C         -3.6273826317       -1.1810406345        0.2978635198
 C         -2.5966774281       -2.0741938360        0.3998533127
 C         -1.2863773505       -1.5809252223        0.3485234781
 H         -0.7075669753       -7.6426709685       -0.2585275741
 H         -0.9880850809       -6.3292612202        0.8737994419
 H         -1.7902499296       -6.3259681940       -0.7013773837
 H          0.4653691964       -6.1827650937       -1.8106656368
 H          1.2161946135       -6.0348836778       -0.2241668856
 H          0.9031858545       -3.8528717670       -1.4303262286
 H         -0.8445533269       -4.0944102900       -1.3745830922
 H          0.9846933492       -3.8809277487        1.0682950634
 H         -0.7790434036       -4.0571503296        1.1133701427
 H          2.7348540402       -2.5365567142        0.4244884489
 H          4.2023109843       -0.6116325193        0.2023387295
 H          2.9373385113        2.9501592157       -0.1678424156
 H          0.8145190682        2.0469343743       -0.0638984178
 H         -1.8862762275        1.7558918088       -0.0289876378
 H         -5.5149498379        0.5677315375        0.1057187903
 H         -4.6446576501       -1.5411755429        0.3346045774
 H         -2.7954379750       -3.1289116803        0.5136478643
  46
        -74.45583156
 C         -0.4838108554       -3.4482724515        2.1775539448
 C         -0.5190005873       -4.6386224482        1.2244631602
 C          0.5336857460       -4.5713134955        0.1141872819
 C          0.1086901290       -3.7599578126       -1.1190434115
 N         -0.0769700882       -2.3625875404       -0.8423876315
 C          0.9391873694       -1.4776288933       -0.6339938221
 C          2.3250699330       -1.6648676091       -0.6875924558
 C          3.1394008514       -0.5941149934       -0.4310214193
 C          2.6259968320        0.6942499070       -0.1172639170
 C          3.4358140993        1.8128912729        0.1579599455
 C          4.8257799091        1.8930661849        0.2108712494
 C          5.4254404492        3.1292240318        0.5056940057
 N          5.9116186209        4.1428353216        0.7477873565
 C          5.7506710543        0.8623210924        0.0093331409
 N          6.5648834480        0.0609505639       -0.1416589001
 C          1.2115327464        0.8717314154       -0.0837421951
 C          0.3956258804       -0.1938600215       -0.3374650099
 C         -1.0452771603       -0.3549129779       -0.3832073156
 C         -2.0811980060        0.5126300970       -0.1827616924
 C         -3.4198313562        0.0363665421       -0.2989925746
 C         -4.5503995551        0.8484599086       -0.1173161090
 C         -4.6039946977        2.2121828032        0.1926954260
 C         -5.8595546375        2.8237181639        0.3256805237
 N         -6.8958728621        3.3127247390        0.4310568533
 C         -3.5287744032        3.0816744123        0.3940705172
 N         -2.6839877938        3.8463584044        0.5712263094
 C         -3.6192942827       -1.3382868179       -0.6197699197
 C         -2.5848930297       -2.2099890868       -0.8200284982
 C         -1.2751747675       -1.7256316726       -0.7019495125
 H          0.5119593019       -3.3291142058        2.5994660163
 H         -0.7608553805       -2.5208890867        1.6845095911
 H         -1.1811591815       -3.6096392678        2.9960620223
 H         -1.5148504498       -4.7295668965        0.7856700267
 H         -0.3382291173       -5.5442628792        1.8069313922
 H          1.4576131016       -4.1571725513        0.5211273184
 H          0.7476357410       -5.5821835565       -0.2380154345
 H         -0.8251035550       -4.1610020671       -1.5173102503
 H          0.8803137917       -3.8576430390       -1.8897134770
 H          2.7527269448       -2.6251785379       -0.9304969148
 H          4.2067853063       -0.7312802067       -0.4721407444
 H          2.9168158526        2.7416851385        0.3616012546
 H          0.8000140658        1.8432989240        0.1434014097
 H         -1.8903742471        1.5433568799        0.0611201392
 H         -5.5152968289        0.3695872811       -0.2307848462
 H         -4.6346266627       -1.6950206873       -0.7070228009
 H         -2.7842636558       -3.2426765344       -1.0621622103
  46
        -74.45347291
 C          1.4328273598       -5.8183117234       -1.3560030283
 C          0.3695142626       -4.7688099735       -1.6588649983
 C         -0.7606275181       -4.7566273941       -0.6288461921
 C         -0.3673442398       -4.0930547433        0.6996780783
 N         -0.2483656711       -2.6664652099        0.5643463882
 C          0.9093514937       -1.9648736345        0.3985405404
 C          2.2399794918       -2.4015702799        0.3527260721
 C          3.2232668740       -1.4656539681        0.1875892670
 C          2.9508249622       -0.0702394350        0.0939805344
 C          4.0387256395        0.8129940888       -0.0182814948
 C          4.0312328828        2.2071362483        0.0640395238
 C          5.2339579887        2.9036494464       -0.1294308276
 N          6.2292274050        3.4582259510       -0.2904674879
 C          2.9460731367        3.0227458453        0.4033200081
 N          2.0996161109        3.7395554140        0.7142265457
 C          1.5918554066        0.3561323474        0.1154287123
 C          0.6049696193       -0.5785196144        0.2588047141
 C         -0.8406582582       -0.4808252846        0.3228239046
 C         -1.7078428752        0.5714030120        0.2244929063
 C         -3.1060336070        0.3276230893        0.3446672418
 C         -4.0797412788        1.3371601766        0.2417770243
 C         -3.9118252784        2.6614464472       -0.1664554067
 C         -5.0179843523        3.5247439725       -0.1385202651
 N         -5.9333770238        4.2208942947       -0.1063606333
 C         -2.7495068199        3.2383692827       -0.6908628434
 N         -1.8357249817        3.7539780325       -1.1663638270
 C         -3.5427530950       -1.0048481911        0.5969745171
 C         -2.6796413127       -2.0633014059        0.6751459098
 C         -1.3102473910       -1.8103605457        0.5251930516
 H          0.9927548568       -6.8131127714       -1.3493745416
 H          2.2105493482       -5.7941110287       -2.1150358320
 H          1.9018921497       -5.6505209014       -0.3891687320
 H         -0.0600023359       -4.9832007136       -2.6391811519
 H          0.8283349490       -3.7791170049       -1.7152580804
 H         -1.6194260141       -4.2209328130       -1.0387388498
 H         -1.0711801202       -5.7821908681       -0.4221818655
 H          0.5816449347       -4.4931591434        1.0580848712
 H         -1.1333863306       -4.3029759322        1.4516498255
 H          2.4944878496       -3.4460295506        0.4420283819
 H          4.2542451089       -1.7842725764        0.1486919100
 H          5.0150283615        0.3663566239       -0.1631676052
 H          1.3452238838        1.3989266524        0.0068717430
 H         -1.3393696318        1.5721940239        0.0740009402
 H         -5.0967719675        1.0585703171        0.4904276101
 H         -4.6026175680       -1.1774077650        0.7106942906
 H         -3.0509539618       -3.0615296482        0.8500446347
  46
        -74.45345733
 C         -1.7419748202       -5.6032473937       -1.3285107968
 C         -0.5455434375       -4.6777352286       -1.5151598941
 C          0.4765005871       -4.7902510718       -0.3831818215
 C          0.0379112824       -4.0819268280        0.9076612478
 N          0.0242755842       -2.6537329024        0.7426799231
 C          1.1461239249       -1.8774759500        0.7063823344
 C          2.4871350250       -2.2194085515        0.9203542641
 C          3.4282256098       -1.2316652938        0.8166644004
 C          3.0990366826        0.1110361957        0.4745578741
 C          4.1492125035        1.0374763783        0.3357935071
 C          4.0929924726        2.3355701433       -0.1708017752
 C          5.2616333626        3.1131495339       -0.1770696709
 N          6.2280897324        3.7371116780       -0.1744179591
 C          2.9901346839        2.9568726311       -0.7686420722
 N          2.1284286338        3.4996902358       -1.3066557598
 C          1.7270646779        0.4500256316        0.3010165717
 C          0.7813828382       -0.5294322556        0.4262783875
 C         -0.6649279934       -0.5263829006        0.3166274395
 C         -1.5756562529        0.4675434342        0.0918199971
 C         -2.9612449797        0.1385018527        0.0401210486
 C         -3.9776163515        1.0866185446       -0.1635370016
 C         -3.8717577875        2.4802831105       -0.1848090626
 C         -5.0176196327        3.2406499140       -0.4618514820
 N         -5.9669544918        3.8491017079       -0.6901062552
 C         -2.7379572518        3.2435308377        0.1128623149
 N         -1.8475153706        3.9232545133        0.3822927871
 C         -3.3377508245       -1.2272547846        0.1978894679
 C         -2.4309381547       -2.2211612180        0.4401179133
 C         -1.0735019624       -1.8796246607        0.5076274892
 H         -2.2825149562       -5.3824262339       -0.4115608057
 H         -2.4333912161       -5.4933526827       -2.1597719301
 H         -1.4172430225       -6.6404671143       -1.2889242898
 H         -0.8862531369       -3.6435558698       -1.6032162030
 H         -0.0500997215       -4.9362552793       -2.4527822654
 H          0.6500811386       -5.8431382818       -0.1550557282
 H          1.4236381474       -4.3551712420       -0.7084398751
 H          0.7347225339       -4.3306011813        1.7135394764
 H         -0.9583214839       -4.4123059658        1.2027710792
 H          2.7775854333       -3.2298441848        1.1644146949
 H          4.4682493777       -1.4733400340        0.9777676413
 H          5.1354664540        0.7015908944        0.6329297085
 H          1.4384369902        1.4655559537        0.0878132293
 H         -1.2503108489        1.4834098304       -0.0566410688
 H         -4.9801846315        0.7013650010       -0.3053025538
 H         -4.3877621230       -1.4726892643        0.1417559634
 H         -2.7640484554       -3.2384718549        0.5736257482
  46
        -74.45345229
 C         -1.3519286598       -6.7817956417       -0.2170322269
 C         -0.1610044520       -6.1550150434       -0.9333027389
 C         -0.2066051434       -4.6280596850       -0.9550436409
 C         -0.0418584669       -4.0158460922        0.4422321818
 N         -0.0019319184       -2.5812615782        0.3730589767
 C          1.1243958926       -1.8334069985        0.1959321680
 C          2.4617933484       -2.2299537632        0.0722822066
 C          3.4105766997       -1.2569377053       -0.0822787781
 C          3.0932720046        0.1321168164       -0.0920100423
 C          4.1509590809        1.0528741360       -0.1965690147
 C          4.1077977252        2.4395535631       -0.0415367653
 C          5.2828413985        3.1806008814       -0.2401175636
 N          6.2545222529        3.7738369640       -0.4057593130
 C          3.0129954716        3.2046054252        0.3759502504
 N          2.1574363247        3.8776532975        0.7529751232
 C          1.7243355332        0.5161622358       -0.0030990240
 C          0.7707598747       -0.4542101704        0.1299031287
 C         -0.6753796298       -0.4110193293        0.2393475393
 C         -1.5817876014        0.6115314285        0.2036044355
 C         -2.9680081094        0.3115479233        0.3388644886
 C         -3.9797583322        1.2866427094        0.2931182223
 C         -3.8682392110        2.6339899836       -0.0565041154
 C         -5.0079269285        3.4494209394        0.0170788006
 N         -5.9508188541        4.1057575000        0.0816810905
 C         -2.7349309893        3.2821000357       -0.5598524263
 N         -1.8471154083        3.8598292819       -1.0127147756
 C         -3.3519957671       -1.0461006620        0.5394257785
 C         -2.4500627368       -2.0741490582        0.5567415486
 C         -1.0937827093       -1.7646239544        0.3954688440
 H         -1.3434233081       -6.5512843627        0.8456494744
 H         -2.2858948726       -6.4231597511       -0.6448641752
 H         -1.3232435729       -7.8631447644       -0.3233647279
 H         -0.1453082532       -6.5076075696       -1.9663748554
 H          0.7657749269       -6.4849635590       -0.4583907561
 H          0.5961169638       -4.2520578267       -1.5939071731
 H         -1.1553744925       -4.2941387467       -1.3810743802
 H          0.8863993434       -4.3719904602        0.8958557780
 H         -0.8751338188       -4.3079643716        1.0838583434
 H          2.7434107885       -3.2716945498        0.0931704514
 H          4.4479498068       -1.5402824498       -0.1799806723
 H          5.1334123276        0.6436106536       -0.3991160788
 H          1.4448196361        1.5550639024       -0.0545254101
 H         -1.2530822982        1.6305306637        0.0870378306
 H         -4.9824553559        0.9581728671        0.5390779939
 H         -4.4029431112       -1.2622187486        0.6610708924
 H         -2.7823577050       -3.0925407021        0.6888699163
