  112
       -169.66850357
 C         -7.4783720916       -4.5389828296       -0.2762857978
 C         -7.3880705136       -3.6641801968        0.7939840844
 C         -7.8414409582       -2.3651883135        0.6752980712
 C         -8.3821057840       -1.9150150362       -0.5289278706
 N         -8.8309647935       -0.5957414578       -0.6573572717
 C         -9.9709765875       -0.3154377745       -1.4192805713
 C        -10.0325422518        0.8365622236       -2.2030585613
 C        -11.1627566056        1.1123836482       -2.9474176219
 C        -12.2430533748        0.2453758939       -2.9311209231
 C        -12.1848421660       -0.9031842845       -2.1587364270
 C        -11.0623511689       -1.1836176640       -1.4044037609
 C         -8.1389773304        0.4439372322       -0.0278601149
 C         -8.8298569854        1.5267968700        0.5165844442
 C         -8.1373872724        2.5491511526        1.1359566371
 C         -6.7576450644        2.5085558644        1.2331465761
 C         -6.0564446400        1.4304300776        0.7006330825
 C         -4.5823612911        1.3715767028        0.8075348169
 C         -3.7906814123        2.2362763548        0.0400230082
 C         -4.3634166090        3.1574108417       -0.8760205061
 C         -3.5842392981        3.9830077276       -1.6260647636
 C         -2.1800716479        3.9284817070       -1.5180891598
 C         -1.5908350433        3.0520716000       -0.6602310836
 C         -2.3666287404        2.1851918191        0.1535714883
 C         -1.7693866324        1.2757503150        1.0372324725
 C         -0.2987935001        1.2546539380        1.1876943256
 C          0.3258036969        2.3053736931        1.8513365976
 C          1.6909172250        2.3141498085        2.0499133148
 C          2.4845331415        1.2619412337        1.5904966172
 C          3.8900582603        1.2185568975        1.8132795586
 C          4.6418408409        0.1852321845        1.3698754040
 C          4.0634980952       -0.8993525052        0.6459630527
 C          4.8241161844       -1.9862931728        0.1803211433
 C          6.2870471251       -2.0402428712        0.3495549365
 C          6.8749505073       -3.1236654350        0.9975962548
 C          8.2494941543       -3.1795135052        1.1439617261
 C          9.0525694488       -2.1712007272        0.6470688769
 C          8.4799384239       -1.0901010960       -0.0233803787
 N          9.2799519058       -0.0665905391       -0.5417087130
 C         10.5303925651       -0.3562627946       -1.0962140081
 C         11.5923912140        0.5350646521       -0.9426713643
 C         12.8271278305        0.2482642991       -1.4908728036
 C         13.0281517441       -0.9297075501       -2.1915747281
 C         11.9773338981       -1.8190589994       -2.3458553774
 C         10.7362700223       -1.5372261174       -1.8094271858
 C          8.8127315713        1.2536946639       -0.5202423538
 C          9.0329372754        2.1019045211       -1.6045722922
 C          8.5592375738        3.3992545249       -1.5791119626
 C          7.8534187836        3.8680638842       -0.4831256685
 C          7.6347522564        3.0302964522        0.5981557765
 C          8.1158396076        1.7359856201        0.5869726679
 C          7.0953389170       -1.0368790899       -0.1681043555
 C          4.1883015969       -3.0471509554       -0.4570578652
 C          2.8269992265       -3.0419432165       -0.6763002158
 C          2.0416417584       -1.9705746695       -0.2484441603
 C          0.6353861252       -1.9274594506       -0.4710947027
 C         -0.1167214900       -0.8950245173       -0.0266505899
 C          0.4701302678        0.1893952060        0.6905667021
 C          1.8722666837        0.1877660749        0.8994569146
 C          2.6614301048       -0.8925107186        0.4299540410
 C         -2.5619735205        0.4100668844        1.8054973544
 C         -1.9895529496       -0.5069250837        2.7261147429
 C         -2.7681061201       -1.3412728560        3.4669262637
 C         -4.1714843508       -1.2982423752        3.3466763217
 C         -4.7596995758       -0.4207629227        2.4895901480
 C         -3.9854406450        0.4555779537        1.6848660529
 C         -6.7492491402        0.4087605202        0.0677743850
 C         -8.4687743487       -2.7996022001       -1.6037074654
 C         -8.0247568165       -4.1008516823       -1.4715157181
 H         -7.1272027101       -5.5551219912       -0.1792803119
 H         -6.9689375107       -3.9977181361        1.7319287351
 H         -7.7859802874       -1.6909350309        1.5171940863
 H         -9.1873102152        1.5089397402       -2.2256436776
 H        -11.1964519339        2.0071622797       -3.5516479715
 H        -13.1235430168        0.4628878224       -3.5164148017
 H        -13.0244220249       -1.5824031186       -2.1356588382
 H        -11.0230114312       -2.0749351642       -0.7953500703
 H         -9.9075270577        1.5566731344        0.4540840930
 H         -8.6816000236        3.3817209258        1.5571755518
 H         -6.2182278452        3.3034696493        1.7262124501
 H         -5.4388353925        3.1867464355       -0.9705237221
 H         -4.0347137738        4.6800692572       -2.3175673516
 H         -1.5766119100        4.5830106461       -2.1299205053
 H         -0.5144427057        2.9979916123       -0.5895357020
 H         -0.2801347152        3.1192281109        2.2243482871
 H          2.1560804415        3.1365211819        2.5745269959
 H          4.3432879651        2.0326704223        2.3612127960
 H          5.7011327696        0.1591471584        1.5718165613
 H          6.2501727519       -3.9069209408        1.4002063654
 H          8.7016216067       -4.0135943440        1.6605308601
 H         10.1240576507       -2.2126575200        0.7746129061
 H         11.4415272847        1.4498032247       -0.3881883926
 H         13.6412268950        0.9464593192       -1.3618821491
 H         13.9959313218       -1.1527056726       -2.6144094030
 H         12.1223670958       -2.7371306576       -2.8961948220
 H          9.9161894820       -2.2277335323       -1.9419978110
 H          9.5731058211        1.7340334449       -2.4647156740
 H          8.7337982641        4.0457824707       -2.4266784167
 H          7.4783613456        4.8801715895       -0.4711673899
 H          7.0941621038        3.3904834599        1.4609848981
 H          7.9637897113        1.0890626182        1.4387479032
 H          6.6467496782       -0.2132599091       -0.7051255395
 H          4.7858222395       -3.8786652713       -0.8034862522
 H          2.3567098033       -3.8702987837       -1.1867526353
 H          0.1807063227       -2.7475866996       -1.0087481362
 H         -1.1817474238       -0.8733905135       -0.2054630553
 H         -0.9151458298       -0.5300842010        2.8316243408
 H         -2.3168645313       -2.0359753656        4.1600754743
 H         -4.7749513394       -1.9605337418        3.9501141388
 H         -5.8351930408       -0.3710343374        2.4130728829
 H         -6.2036262051       -0.4210111740       -0.3584364953
 H         -8.8826705805       -2.4573223969       -2.5409870323
 H         -8.0973878157       -4.7751062222       -2.3123562086
