112
 energy: -169.607252064883 gnorm: 0.000095103355 xtb: 6.7.1 (edcfbbe)
C           -7.71797623066162       -4.44914076581383       -0.04660121220682
C           -7.62838923453323       -3.56049446406448        1.01222094336923
C           -8.03704858199774       -2.25036928395815        0.86015192778198
C           -8.53028414678324       -1.80464166143976       -0.36570618693850
N           -8.92511238423442       -0.47044732350282       -0.52194976452664
C          -10.05447579756701       -0.15044998971805       -1.27913205758932
C          -10.09013259494302        1.01955187474680       -2.03822406060312
C          -11.21276017390903        1.33569079701273       -2.77780142065340
C          -12.31165132802021        0.49231443898554       -2.78241673289751
C          -12.27958087509263       -0.67348606116913       -2.03469605806918
C          -11.16529675188634       -0.99454425827475       -1.28476800141554
C           -8.17016877941840        0.54183587501477        0.08259127523394
C           -8.79784671709187        1.64339379718759        0.66563348494529
C           -8.03733052358461        2.63000915451126        1.26535192990301
C           -6.65854776917480        2.53784961315264        1.29537177967311
C           -6.01276627083189        1.44116082577665        0.71779406981605
C           -4.55105215972479        1.33798833156966        0.74502905571636
C           -3.76139838368205        2.36537835081955        0.15226194162791
C           -4.35123944356123        3.42055307282674       -0.55774779892504
C           -3.58556353122817        4.39443454470073       -1.17937823302340
C           -2.20660574041144        4.30677275836421       -1.14972063876636
C           -1.59554745850648        3.25074641024889       -0.48809325086576
C           -2.33937926978331        2.28753845750037        0.20176024427139
C           -1.70238509703394        1.17504976679467        0.84364269226491
C           -0.26118922560628        1.14536190975619        0.95000467652969
C            0.39330513302911        2.23544831938002        1.54992820684395
C            1.73946108042630        2.21857743531332        1.79812528979114
C            2.53396669246257        1.12418583848149        1.40954945571165
C            3.91637172924094        1.06037973769638        1.69158072386184
C            4.67492883772846        0.00726983329379        1.28091096089849
C            4.11644843383481       -1.05310449694865        0.52000397439163
C            4.88984338813072       -2.13274669099947        0.03833214907903
C            6.35062757002353       -2.17626189350834        0.19264642851899
C            6.97307237086471       -3.32097642792938        0.68983262706231
C            8.35042345421502       -3.37088760327415        0.80396722501520
C            9.12907227413444       -2.29106994284102        0.43250441056634
C            8.52291690057969       -1.14262590077949       -0.07561627262286
N            9.28881826836911       -0.03058747096269       -0.44815455107690
C           10.51154858615385       -0.19680483087661       -1.10074987246690
C           11.56219703881697        0.69275130074399       -0.87316725456909
C           12.76952171221369        0.52504064529978       -1.52219698700592
C           12.95562693464712       -0.53134248908078       -2.39885055731906
C           11.91721794505161       -1.41977803811519       -2.62560227007248
C           10.70294767413002       -1.25601571645676       -1.98858702984732
C            8.80443429022160        1.25093395959459       -0.15813093272048
C            8.94746694428545        2.29250369920405       -1.07362172049909
C            8.45130023841300        3.54778414419510       -0.77972402273140
C            7.80076194730311        3.78335231095735        0.42050348286676
C            7.65987721316744        2.75278416248409        1.33527156169963
C            8.16214255907142        1.49749934660923        1.05500067849360
C            7.13725229437120       -1.10002550877737       -0.20154253105359
C            4.26057979078790       -3.18439017509769       -0.62475033315503
C            2.90583550173513       -3.17526759032183       -0.86702995819441
C            2.11163780022211       -2.10169319031507       -0.44152100909262
C            0.72329023234865       -2.03730167093380       -0.71711317106161
C           -0.03754582500594       -1.00044928562546       -0.27491970674513
C            0.52383659044000        0.05020130085285        0.49303296939428
C            1.92213143308349        0.04405264990716        0.72565587804930
C            2.71825604430175       -1.03802726824744        0.27066316284889
C           -2.50375369373055        0.14172386088191        1.43531300586685
C           -1.92798070638315       -0.89134920868530        2.18240555303800
C           -2.69975900637500       -1.86605952659845        2.79596447689599
C           -4.07870888829428       -1.80329592734385        2.71583297594870
C           -4.67980401101119       -0.75718557076750        2.03642634024039
C           -3.92546462976400        0.22398698840574        1.37800668706051
C           -6.78184699682569        0.45204232123946        0.11171259233985
C           -8.61982483142639       -2.70326022823472       -1.42784013343304
C           -8.22010790039361       -4.01519963757144       -1.26264723780886
H           -7.40095781679717       -5.47366568652277        0.07568554546979
H           -7.24738595543000       -3.89276976032354        1.96662313927028
H           -7.98817314270583       -1.56275121300588        1.69198342268239
H           -9.23040739868296        1.67352293003152       -2.04684352184867
H          -11.22566582260981        2.24387215323748       -3.36249396068091
H          -13.18598398982777        0.74134867412970       -3.36429033043980
H          -13.13351755899894       -1.33494406309610       -2.02764190258351
H          -11.14830614042418       -1.89859315790982       -0.69373913776679
H           -9.87526003120638        1.71323007608434        0.65101441224254
H           -8.52879090983107        3.47550547202209        1.72417721194693
H           -6.07176684617242        3.29959203955772        1.78670673481324
H           -5.42654331912829        3.46667820956396       -0.63644260664253
H           -4.07131941493312        5.20366555567622       -1.70431951232007
H           -1.59990188388726        5.04368334974586       -1.65466012275179
H           -0.52018096807521        3.16591570410119       -0.52197599581109
H           -0.20533515319485        3.06811354203039        1.89169780536195
H            2.20605721316817        3.04240950737581        2.31917558721116
H            4.36505976853332        1.86899786338844        2.25110401603434
H            5.72098047523207       -0.03247878601402        1.53954516643740
H            6.37130595508591       -4.16055436240717        1.00420843452507
H            8.82468417565503       -4.25720638417673        1.19952644668229
H           10.20341088651233       -2.32701304626592        0.53554910882700
H           11.42504710581698        1.51085908944977       -0.18119943058501
H           13.57471147430802        1.22026191812822       -1.33456305621523
H           13.90210170447253       -0.66102641318409       -2.90129906763616
H           12.05044047170413       -2.24332870048963       -3.31182190922469
H            9.89180376062959       -1.94392112294960       -2.17746409209616
H            9.44424702837975        2.10724843442861       -2.01482481350918
H            8.56489758387177        4.34611085309292       -1.49843178860984
H            7.40900275183173        4.76442821573984        0.64231145550459
H            7.16554270435968        2.93020272648516        2.27915087353576
H            8.07095655327770        0.69821952082444        1.77642368939992
H            6.67197362588025       -0.22453849290034       -0.63137204855864
H            4.86356908199406       -4.00663253868517       -0.98363051749209
H            2.44274227577387       -3.99168337680668       -1.40230505408543
H            0.27735734932427       -2.83382231948185       -1.29568708047328
H           -1.09158815749619       -0.96446193546145       -0.50710801541152
H           -0.85533697793557       -0.93211801450298        2.29122541045215
H           -2.21778021837161       -2.66045679458349        3.34601051318561
H           -4.69035856129796       -2.55132369235210        3.19788222494101
H           -5.75533833461713       -0.68570799490727        2.02815333343431
H           -6.29377461350093       -0.38816608714436       -0.36132665920999
H           -9.00019093506822       -2.36336872012013       -2.38009261500969
H           -8.29245243793051       -4.70168910434809       -2.09347113873858
