112
 energy: -169.668245324920 gnorm: 0.000042764594 xtb: 6.7.1 (edcfbbe)
C           -7.37216183922655        2.49299651313987       -3.80463721635058
C           -7.49230567671759        1.12982415662796       -3.58992331876380
C           -7.97874135558874        0.65239850536846       -2.38910171627068
C           -8.33951612543452        1.53714878902241       -1.37328396925321
N           -8.81430083790126        1.05141963489860       -0.14922064925047
C           -9.84307995765294        1.71805446782930        0.52276373285371
C          -10.87728021155992        2.32477389296034       -0.19001019342333
C          -11.88975711481930        2.98465159893101        0.47844863617748
C          -11.89559427979599        3.04443871785461        1.86243745585715
C          -10.87310667393513        2.44022084375907        2.57537568570640
C           -9.85132143175079        1.78557759510834        1.91603658415447
C           -8.24886355135368       -0.10539859264124        0.39899270381289
C           -9.04367442479715       -1.04094083660610        1.06096758470236
C           -8.47204863561680       -2.18322727352691        1.58772165838747
C           -7.11387156800840       -2.41554234669949        1.46112034316402
C           -6.30837612534582       -1.48996899516073        0.80250225069434
C           -4.85576401271906       -1.72400601980347        0.66361578450535
C           -4.03614453535507       -1.71920527783331        1.80184014176633
C           -4.54993025886822       -1.44882714928434        3.09752872302372
C           -3.74137890556620       -1.44965064464130        4.19213581655384
C           -2.36286879680898       -1.71257484814974        4.06124368273517
C           -1.82596833158244       -1.95711798115934        2.83552546240454
C           -2.63459438603564       -1.96643727908200        1.66877735495302
C           -2.08457303011144       -2.19388624565845        0.40135882320371
C           -0.63646465382312       -2.47490904959903        0.27048721580938
C           -0.17897210719582       -3.77498997770192        0.44844616476674
C            1.16296190569544       -4.07913265121204        0.33951501518643
C            2.09710023986556       -3.08528204243882        0.04400488518098
C            3.49153389573412       -3.35787368513727       -0.05300086069069
C            4.38120099082940       -2.38332448146640       -0.35165379394497
C            3.96162555822046       -1.04043332681102       -0.59027163100237
C            4.86492599342828       -0.01323108476722       -0.91538919679683
C            6.29570468176291       -0.27356223560764       -1.14558161935447
C            6.71455325609211       -1.21790449060987       -2.08129651741809
C            8.06507558289450       -1.42045676332785       -2.30175858996714
C            9.01107607704387       -0.68809182192129       -1.61038554885574
C            8.60683057656449        0.26713272958088       -0.67804966625723
N            9.55157209337054        1.02971745437782        0.01776908938321
C            9.29262213266411        2.37821141314462        0.28645121719252
C            8.61394502599363        3.16647295120522       -0.64319514842936
C            8.35340037783680        4.49525464100239       -0.37177356197736
C            8.77075565793656        5.06327977472394        0.82079851205004
C            9.44981381452760        4.28664911719896        1.74519480440215
C            9.70667347837941        2.95421455054860        1.48720296078092
C           10.75303229874025        0.44637820051078        0.43340469820550
C           11.94233368878952        1.17445750417100        0.40433535795411
C           13.12460145474273        0.59300062838691        0.81872476591379
C           13.14523280002322       -0.72038352895781        1.25876054878112
C           11.96769010416933       -1.44945434375533        1.28535362648309
C           10.77877076537553       -0.87429125045966        0.88147418456309
C            7.24662825630564        0.46255465277468       -0.45229543792664
C            4.40192448395497        1.29339471060352       -1.04311144201027
C            3.06558943208888        1.59993571004667       -0.89989442342326
C            2.13270530145115        0.60091532018221       -0.61755113679486
C            0.74215244103666        0.88046767474778       -0.48513288271587
C           -0.14906068052568       -0.09750718269897       -0.20476713268074
C            0.27297582916418       -1.44785707407979       -0.02564943286237
C            1.65142208662896       -1.75431777684984       -0.14561783039710
C            2.58397736390123       -0.73158296158249       -0.45144207513689
C           -2.89809007258692       -2.17812377326563       -0.73826574007259
C           -2.36057418045758       -2.39295768302874       -2.03449861834998
C           -3.15915205352153       -2.39379520042599       -3.13573887886111
C           -4.54858072059295       -2.19756420149330       -3.00405850542192
C           -5.10147908181917       -1.98910601144362       -1.77851929003667
C           -4.30299103927579       -1.95071878460141       -0.60555471981847
C           -6.88042472246274       -0.33851864592876        0.28054147683211
C           -8.21638155335513        2.90830683899814       -1.59458532368154
C           -7.74136125064063        3.37706733058478       -2.80402538824513
H           -6.99514960972916        2.86393603314855       -4.74561081336479
H           -7.21411510517586        0.43287649662212       -4.36671318643136
H           -8.09076779306328       -0.41008512213922       -2.23030296894903
H          -10.88128431015753        2.27092118993034       -1.26892565834156
H          -12.68547452052032        3.44824053972243       -0.08612801528274
H          -12.69063256012488        3.55810537525479        2.38126233804746
H          -10.86567376461325        2.48651344516862        3.65458874808842
H           -9.04946553845167        1.32531454101883        2.47472105208309
H          -10.10576424602024       -0.86827118682277        1.15229299477888
H           -9.09558239695574       -2.90557690626662        2.09391768866075
H           -6.67204326547004       -3.31516465429129        1.86306629803920
H           -5.60318320030341       -1.23393832431586        3.19996525958857
H           -4.14892427179984       -1.24229371807503        5.17088445925528
H           -1.73697374673355       -1.70806064027653        4.94158078449328
H           -0.76735499458121       -2.14348694388434        2.72760590332349
H           -0.89379408476398       -4.55297876208021        0.67692579880284
H            1.50094289917025       -5.09528916762608        0.48461830496953
H            3.82527142316049       -4.37008854772217        0.12796102575424
H            5.43643131824722       -2.60717677282347       -0.39845610657950
H            5.98059989765231       -1.77277014664958       -2.64647379173839
H            8.38622678718217       -2.14897976292645       -3.03186730662275
H           10.06397547127275       -0.84225425678278       -1.79412030077354
H            8.29844465867399        2.72946435939134       -1.57957931342719
H            7.82876593546235        5.09456025812612       -1.10163945184010
H            8.56871615755946        6.10321699495775        1.02782045373302
H            9.77494030156447        4.71934111600075        2.68000728212147
H           10.22689385762642        2.34861635121658        2.21489330649031
H           11.93135549944590        2.19548232887507        0.05170723966508
H           14.03869570343801        1.16777623250783        0.78914599561887
H           14.07192127017589       -1.17220416448524        1.57852527653716
H           11.97277080014679       -2.47251229927732        1.63206024657674
H            9.86016179616225       -1.44183185859752        0.91336375328403
H            6.92830850636443        1.18723071869386        0.28338576937780
H            5.10945256185222        2.07514942628459       -1.28147846390465
H            2.72813171847007        2.62010849049013       -1.01495423254961
H            0.41515493302466        1.90249586622803       -0.61541198258657
H           -1.20174493088248        0.12516062873897       -0.10675725460252
H           -1.29694928634762       -2.55716203557709       -2.12811440592095
H           -2.73742245548995       -2.55476274031703       -4.11706886438826
H           -5.17154083010627       -2.22101169541466       -3.88628242064857
H           -6.16747138106201       -1.85499600144697       -1.67929991430204
H           -6.25602191599575        0.38855718748938       -0.21897043976318
H           -8.49211051193946        3.59941610182214       -0.81141905810872
H           -7.64937223857425        4.44165262715888       -2.96234252075586
