85
 energy: -138.679195124810 gnorm: 0.000122538355 xtb: 6.7.1 (edcfbbe)
F           -1.40945839993062        5.29512740353489       -0.63420525663300
C           -2.28521922008558        4.28483950611528       -0.48636006820034
F           -3.46639797768696        4.86036357253643       -0.18924792455427
F           -2.42999216048530        3.72739841527689       -1.69454855822238
C           -1.85418683046575        3.31170260366665        0.57339960124033
C           -1.52976179634043        3.80037281604993        1.83223947222421
C           -1.14580126611662        2.91430942085137        2.82447478147319
C           -1.08791255539917        1.55775058607570        2.56575282209972
C           -1.40444534261206        1.07433391648757        1.29825639704885
N           -1.37850225870403       -0.30062038863709        1.03611741727705
C           -0.35437519204480       -1.20632186248020        1.20137219231237
C            1.02319232138706       -0.92492617020475        1.55117416071028
C            1.60428861624394        0.34275455879816        1.54036985679204
C            2.94705278874538        0.50034707580704        1.80652542769825
C            3.75798924770408       -0.60074479499164        2.07059993899298
O            5.08005874287567       -0.34421862472395        2.30171327020428
C            6.01974333516606       -1.33181355233858        1.92361831085628
C            5.94446926777109       -1.61963467730586        0.42210208614581
C            6.24071123904106       -0.35637039359553       -0.38925918188275
C            5.53383129757070       -0.35106635214848       -1.75032376374607
N            4.12453063043702       -0.08277673746359       -1.63562670406420
C            3.09237867324815       -0.98606502639260       -1.75099416445620
C            3.12388619829608       -2.36312078216879       -1.92267396303983
C            1.91976790543703       -3.03315368611351       -2.02552804293595
C            0.70228358663240       -2.36008627550606       -1.97310608337331
C            0.66141420612407       -0.99266446283852       -1.79786342529789
C            1.85703512912861       -0.29846959836589       -1.67649372117524
C            2.17486569997362        1.08645479359285       -1.48625697148241
C            1.40535343644214        2.23212678840133       -1.33531193424805
C            2.04294377378313        3.44163446277885       -1.14849524131438
C            3.43403281881776        3.51699165476075       -1.12664498519302
C            4.22218471299393        2.39315212683841       -1.28672360513523
C            3.58660863246053        1.17123008382447       -1.46173948247188
C            3.18397965902385       -1.87050725331479        2.08571764645550
C            1.83875482788571       -2.02274045002285        1.83388014521573
N           -0.75605756602660       -2.41224701720523        0.88641547359563
C           -2.05406655012173       -2.32770418810784        0.49060187663653
C           -2.78680248615561       -3.52384846327961        0.10547621321486
C           -2.06658377597021       -4.65024500381539       -0.29215477851077
C           -2.72356914859242       -5.80548232402515       -0.66701600784257
C           -4.10806310113796       -5.85727198478625       -0.64457814287902
C           -4.82988776328414       -4.74940961779782       -0.23176879329775
C           -4.17808548525498       -3.59010614053317        0.14479183562234
C           -2.46552612480449       -1.00870261525132        0.55674287637321
C           -3.72151494236767       -0.35993492177691        0.20048066580725
C           -4.27550147593436       -0.57532124872283       -1.06116504457789
C           -5.44625873826245        0.06033093190079       -1.42646206799615
C           -6.07817858954687        0.92039688315635       -0.54252952903393
C           -5.53936278990740        1.13308220343956        0.71507975882742
C           -4.36891499253460        0.49846429022162        1.08745512255161
C           -1.79773925637992        1.95591300034099        0.29649781881723
H           -1.58042009271370        4.86028816709506        2.02657549635590
H           -0.89708723396358        3.28391584515194        3.80678721464424
H           -0.79081252280973        0.86199944518583        3.33615524581871
H            1.03103846312811        1.21777647101698        1.28296964002914
H            3.39518602993591        1.48147408505361        1.78501649388369
H            5.88509615184178       -2.25343836575329        2.50308251999821
H            6.98935862568147       -0.89986092078775        2.18465616357188
H            6.64564228605273       -2.41674064427608        0.17129346514328
H            4.93476770811947       -1.96592667525393        0.19281606357200
H            5.89556314482674        0.51080213235552        0.17698745480592
H            7.31656311256499       -0.25407704514123       -0.54122939970644
H            5.66778026695874       -1.31405204587907       -2.24849481672762
H            5.97825507079301        0.42312329445439       -2.38584477804981
H            4.05611947733897       -2.90643585341375       -1.98005547156202
H            1.92403499212666       -4.10516779831995       -2.15761500742025
H           -0.21665440418480       -2.91779576483479       -2.06807316636268
H           -0.28126359990104       -0.46631216118438       -1.76452282784163
H            0.32768578294240        2.17456638058535       -1.36858354975970
H            1.46084577294333        4.34292530502271       -1.02385733398368
H            3.90718487353886        4.47752184924353       -0.98378581482704
H            5.29882276822733        2.47398995046138       -1.27358101361747
H            3.78145205646129       -2.74469605712579        2.29396367002113
H            1.38996811619163       -3.00289012612527        1.83235796396941
H           -0.98897281707716       -4.59484134387589       -0.29552336838922
H           -2.15628569434784       -6.67102774344780       -0.97808571107361
H           -4.62297775769526       -6.75969905334168       -0.94029164376870
H           -5.90920389830188       -4.79015040887339       -0.19871234662243
H           -4.74928965012188       -2.73829418224497        0.48238302423417
H           -3.77617695306575       -1.24194887368238       -1.74917299857296
H           -5.86424997480525       -0.11012824542991       -2.40741975724438
H           -6.98910815406601        1.42191165183032       -0.83236194156058
H           -6.03164277654568        1.79711931123510        1.41012075394999
H           -3.96105600485508        0.65733527327371        2.07595606675568
H           -2.05834123615019        1.58498935831664       -0.68291430512761
