85
 energy: -138.594375609770 gnorm: 0.000118208929 xtb: 6.7.1 (edcfbbe)
F           -2.45932750463869        3.83128672772647       -1.64803982105384
C           -2.28033588633231        4.37702653661813       -0.43596900737813
F           -1.43843686380712        5.41322458013107       -0.61086763403852
F           -3.46599351248692        4.92304013701258       -0.09357229531743
C           -1.78719278355398        3.40511938487233        0.59271774948534
C           -1.31926556751679        3.90326929089757        1.80809635534126
C           -0.86439187609869        3.00822859750618        2.76794587071483
C           -0.87683413535905        1.65234348813768        2.52785369123942
C           -1.34771788928521        1.15140163883797        1.30166105081398
N           -1.37773059456284       -0.21207442982958        1.06690084569540
C           -0.32668943580972       -1.14374348416678        1.26289311905461
C            1.02329500079005       -0.90631135128520        1.56058859897958
C            1.66670225044772        0.35981807559193        1.59963748936875
C            3.01145835376063        0.45454770662923        1.83165647881067
C            3.80366242840530       -0.68729104834580        2.01404143073991
O            5.13652954542931       -0.48027478797020        2.20697025365637
C            6.03537918279503       -1.48487274995308        1.78053349659773
C            5.90469330493691       -1.73745965616840        0.27584061518642
C            6.20047917687501       -0.46411946470530       -0.51931264689728
C            5.42911459504252       -0.40727573563846       -1.84405635850029
N            4.03485530591421       -0.10531357674150       -1.65550862253828
C            2.97385775091276       -0.97536950995545       -1.75653985235010
C            2.95932224208136       -2.34886821577227       -1.95953002200026
C            1.73301863218337       -2.98007002800198       -2.04635740765431
C            0.53874388557945       -2.27153462426801       -1.94907759673183
C            0.54326058380812       -0.90739290040097       -1.73832256385943
C            1.76208603237260       -0.25380152954288       -1.62963665911714
C            2.12618853925325        1.11763118471442       -1.42129182867727
C            1.39454001261151        2.28139889163268       -1.22830116755714
C            2.07364532135237        3.46841636778240       -1.04225375028447
C            3.46626616698820        3.50374210264809       -1.06311753496459
C            4.21637776574762        2.36072276106950       -1.26677214419246
C            3.53949109793300        1.16141452031124       -1.44167924942676
C            3.18643924807024       -1.94868656418586        1.97864988525089
C            1.84284085116385       -2.05281409771363        1.76164835912119
N           -0.76489656792880       -2.38571279263185        0.97730485576278
C           -1.99502671110960       -2.30126437829118        0.51748377916577
C           -2.73843546588355       -3.49716315954914        0.18711787071222
C           -2.02666307767198       -4.62949106106381       -0.22554709152668
C           -2.68879259860583       -5.79702973533917       -0.54073393546694
C           -4.07091681358399       -5.86491360814352       -0.43485051626842
C           -4.78197939682678       -4.76002968374199        0.00668867431953
C           -4.12783439365080       -3.58441356859120        0.31865552214221
C           -2.43385225566216       -0.92160418258030        0.51640791607833
C           -3.68361206825639       -0.37624942320930        0.10693266582486
C           -4.32638868117460       -0.89112069029756       -1.04012930748827
C           -5.52315843870910       -0.36756414560807       -1.46978967906677
C           -6.12830129804073        0.67416707057729       -0.77544512776384
C           -5.51917422805943        1.18106335270361        0.36667522513705
C           -4.31697317190393        0.67522273591997        0.80386463018447
C           -1.81212550867959        2.05010922283702        0.33168332403387
H           -1.31407651099501        4.96541602275067        1.99059735741798
H           -0.50743470588976        3.38011439335620        3.71585053481840
H           -0.53680985457554        0.95707507261004        3.28039285860106
H            1.11737215328882        1.26101245544308        1.39354683367308
H            3.49560900541551        1.41889182192035        1.84127016855699
H            5.88911434357628       -2.41500532482384        2.34317877341155
H            7.02499402861003       -1.08774623171677        2.02072225767409
H            6.57935707398085       -2.54390594456489       -0.01428594438487
H            4.88039295587145       -2.05698236192043        0.07433607617195
H            5.90899739836927        0.39992676331145        0.08076599270580
H            7.27003474179368       -0.38903958033463       -0.72200643618679
H            5.51373791341379       -1.36067168769163       -2.37067865575311
H            5.86343921072690        0.37106599642884       -2.48124071318569
H            3.87244508935099       -2.91834500604991       -2.05605968043696
H            1.70135210733435       -4.04806699967205       -2.20500996494840
H           -0.39866188695674       -2.79842465658878       -2.04339024689424
H           -0.38058638910014       -0.35190565607172       -1.67510304758100
H            0.31570577781671        2.25471027393730       -1.22475363674606
H            1.52164386537079        4.38295979936300       -0.88448201330428
H            3.97162460188852        4.44756032937519       -0.91991879015062
H            5.29479156448941        2.41051935050545       -1.28726704697439
H            3.76646392596068       -2.84547569874869        2.13535364150457
H            1.36236114815626       -3.01693606698300        1.73632506390193
H           -0.95233933622613       -4.55950050193875       -0.29683762584469
H           -2.13071950077299       -6.66098657751948       -0.87112010191309
H           -4.58987734125872       -6.77847984867346       -0.68440132160637
H           -5.85530136181798       -4.81746532736506        0.11414255675670
H           -4.68816312882941       -2.74155794035049        0.69270254768459
H           -3.84458075003502       -1.67798120991446       -1.60109400370349
H           -5.98957126755645       -0.76269377505511       -2.36034418814445
H           -7.06451453394224        1.08555900294187       -1.11950112162706
H           -5.99328334416024        1.97845673228897        0.91976645391584
H           -3.87769386386112        1.05080275220640        1.71561364515261
H           -2.17041383163860        1.68502002999813       -0.61836900118577
