85
 energy: -138.594376376199 gnorm: 0.000052383241 xtb: 6.7.1 (edcfbbe)
F           -1.44210109414352        5.42634198990447       -0.64763412321670
C           -2.27818280083809        4.38354819136365       -0.48534376972837
F           -3.47492485556473        4.92029571626358       -0.16746718058980
F           -2.42940426007634        3.83237317388103       -1.69880045685283
C           -1.79675072914761        3.41884320658138        0.55561273841260
C           -1.34471011357881        3.92447964672077        1.77386345648259
C           -0.90190882808384        3.03539259999815        2.74484099503997
C           -0.91083197230484        1.67805593117202        2.51283938975283
C           -1.36556606311425        1.16957112847459        1.28368501286483
N           -1.39268458967996       -0.19532177223343        1.05671136155829
C           -0.34424599633329       -1.12601420692947        1.27010532205799
C            1.00156844651368       -0.88738250017860        1.58517104915372
C            1.64442494977084        0.37891196695789        1.62788829909559
C            2.98578268016428        0.47466782410909        1.87847228951719
C            3.77530095195963       -0.66635980796128        2.07663955663281
O            5.10543559706622       -0.45857327826032        2.28729684248815
C            6.01006823455379       -1.46412653944967        1.87556657978225
C            5.89840819565974       -1.72194766896045        0.37023528215690
C            6.20294415640482       -0.45111051719973       -0.42556208795677
C            5.44952264783342       -0.40058163422751       -1.76085989908157
N            4.05307342423534       -0.09676121734694       -1.59252681712373
C            2.99266107973059       -0.96623240813624       -1.70408910110760
C            2.97941519450609       -2.34063743907461       -1.90097528512227
C            1.75374821724185       -2.97099437458275       -2.00172612152600
C            0.55900761686235       -2.26081480610488       -1.92419651535998
C            0.56209601262331       -0.89574736399292       -1.71945129985435
C            1.78002263054160       -0.24292272067444       -1.59683422807642
C            2.14268029222635        1.12899838100064       -1.38918795562713
C            1.40970842110294        2.29422237161474       -1.21052230644823
C            2.08748940617788        3.48122905789818       -1.01967024948536
C            3.48030292713549        3.51513734641111       -1.02197892525390
C            4.23189007071978        2.37064019097490       -1.21131178356601
C            3.55616842549495        1.17130990197574       -1.39061114273182
C            3.15865747541346       -1.92792745732889        2.03764635996833
C            1.81821812548984       -2.03301412791234        1.80224407110963
N           -0.77876507514844       -2.36918210818220        0.98415370142036
C           -2.00298573663807       -2.28688119557884        0.50850814767238
C           -2.74210348585279       -3.48426353727216        0.17397495773640
C           -2.02516255581997       -4.61840206287986       -0.22462573610674
C           -2.68327832314034       -5.78736608354477       -0.54290232214012
C           -4.06666184478813       -5.85479804889230       -0.45442408806827
C           -4.78325512510055       -4.74795709256675       -0.02696757441443
C           -4.13304811460697       -3.57101473218638        0.28821665598680
C           -2.44185684603444       -0.90727157589955        0.49608965114173
C           -3.68670634399636       -0.36354419034799        0.07006888873491
C           -4.31668659201407       -0.88293284161614       -1.08205998392966
C           -5.50858423628796       -0.36108272124867       -1.52707708381806
C           -6.12126637709390        0.68355687418475       -0.84379412889966
C           -5.52475661272312        1.19516610549935        0.30286749383124
C           -4.32762090524385        0.69093311700120        0.75550757819008
C           -1.81782863903168        2.06224367011867        0.30248926610496
H           -1.34217501107640        4.98770194351995        1.95008252958858
H           -0.55730593097651        3.41312765790493        3.69499725797117
H           -0.58047227012781        0.98747804967591        3.27395758568765
H            1.09813309875340        1.27922637195553        1.41028982661831
H            3.46972607719232        1.43907890791104        1.89101162857328
H            5.85724141697182       -2.39242449969309        2.43950932401421
H            6.99637338743034       -1.06559710306397        2.12680296241937
H            6.57737049090531       -2.52873463997594        0.09128798376410
H            4.87698873935269       -2.04307783028755        0.15699202346350
H            5.90185915154707        0.41466991534350        0.16722682499626
H            7.27505726406949       -0.37496930003455       -0.61382942365861
H            5.54053089669949       -1.35672416902528       -2.28138756309747
H            5.89283810852619        0.37419449518486       -2.39620048930529
H            3.89316755094621       -2.91147373978238       -1.98231238517020
H            1.72309847641215       -4.03968415623804       -2.15581729120530
H           -0.37756562088206       -2.78719902174723       -2.02906717876277
H           -0.36190933746376       -0.33901441422531       -1.67147266372582
H            0.33091377542311        2.26861911171483       -1.22153205783828
H            1.53435319209112        4.39687318612537       -0.87261397974219
H            3.98467137698699        4.45897795606817       -0.87548229466161
H            5.31052833339297        2.41931611929442       -1.21762239958616
H            3.73651108402888       -2.82398899153391        2.20611393354327
H            1.33811618730448       -2.99723797901596        1.77414581344922
H           -0.95001885510852       -4.54868737325553       -0.28268941315289
H           -2.12108875916226       -6.65284196083629       -0.86214206220929
H           -4.58243133502826       -6.76948933445313       -0.70646601165528
H           -5.85787939707230       -4.80484604070275        0.06694019938763
H           -4.69807528002555       -2.72655406107951        0.65141688022621
H           -3.82873712798279       -1.67207123472441       -1.63445790413342
H           -5.96517924092992       -0.75986421703742       -2.42108925273781
H           -7.05356907679928        1.09359006679814       -1.19989885906170
H           -6.00474733438928        1.99499283182433        0.84730005875164
H           -3.89850831820130        1.07017645094281        1.67057214284770
H           -2.16365679174643        1.69133216967137       -0.64992795573767
