  55
        -91.10277823
 C         -1.8706172701        2.9723902169        2.5455090793
 C         -1.3150442707        1.7913471106        2.9970998972
 C         -1.5521267264        0.6048365635        2.3231287190
 C         -2.3285707133        0.5843421198        1.1712373898
 C         -2.9311271710        1.7757443068        0.7541032602
 C         -2.6943048183        2.9590049708        1.4304496466
 O         -3.7852297443        1.8272102828       -0.3186543237
 C         -4.0603029798        0.6473371594       -0.9623132175
 C         -4.9596230184        0.7098617935       -2.0111311925
 C         -5.2660198930       -0.4275308067       -2.7424185176
 C         -4.6527988705       -1.6222234277       -2.4247988619
 C         -3.7542960212       -1.6913524148       -1.3709144506
 C         -3.4558975381       -0.5680595309       -0.6100576467
 N         -2.5651423923       -0.6007151310        0.4683616150
 C         -1.6783341940       -1.6783382332        0.6400125095
 C         -2.1106661489       -2.9351675457        0.9870622287
 C         -1.2028999970       -3.9981759639        1.1247529885
 C          0.1372327132       -3.8177235399        0.9264553572
 C          0.6257059027       -2.5405979930        0.5793287365
 N          1.9382988234       -2.3519157493        0.3799757757
 C          2.3540602757       -1.1422459329        0.0552315726
 C          3.7632982656       -0.9168919435       -0.1796802094
 C          4.6527110670       -1.9907484185       -0.0861326547
 C          5.9957860331       -1.8135324457       -0.3227508435
 C          6.4672030684       -0.5505557458       -0.6624133583
 C          5.6012714155        0.5172993318       -0.7540644637
 C          4.2303395376        0.3707751529       -0.5120316802
 C          3.2984840897        1.4883270160       -0.5883924406
 C          3.7103645346        2.7991473887       -0.8552993811
 C          2.8073160252        3.8385728256       -0.9131552009
 C          1.4520343581        3.6097502594       -0.7034008953
 C          1.0162390741        2.3330510049       -0.4369842979
 C          1.9225079071        1.2704545989       -0.3785360946
 C          1.4375906767       -0.0557420846       -0.0748821394
 N          0.1437265790       -0.2341881351        0.1028004380
 C         -0.2871600279       -1.4558521513        0.4335932182
 H         -1.6816435138        3.9005465327        3.0615927552
 H         -0.6954700124        1.7833784353        3.8806605238
 H         -1.1232849881       -0.3156025864        2.6889918650
 H         -3.1640145627        3.8591051845        1.0668796176
 H         -5.4005288228        1.6652814755       -2.2468581386
 H         -5.9691280937       -0.3685498806       -3.5581828808
 H         -4.8642424702       -2.5137217436       -2.9953235610
 H         -3.2690536149       -2.6291113191       -1.1520860371
 H         -3.1615677088       -3.1056860414        1.1687252278
 H         -1.5833328240       -4.9709910153        1.3990872381
 H          0.8437224027       -4.6262516756        1.0264493226
 H          4.2491498760       -2.9567928372        0.1735396660
 H          6.6791282987       -2.6463098707       -0.2502543525
 H          7.5195021589       -0.4028655543       -0.8570542936
 H          6.0037817807        1.4806789457       -1.0231909610
 H          4.7539014427        3.0182343621       -1.0155305227
 H          3.1586877637        4.8391141926       -1.1194585650
 H          0.7493228787        4.4281383131       -0.7450514843
 H         -0.0263260627        2.1221177366       -0.2575821508
