  55
  -91.1027782300000       0.350520174391722      !
 C         -1.8706172701        2.9723902169        2.5455090793
 C         -1.3150442707        1.7913471106        2.9970998972
 C         -1.5521267264        0.6048365635        2.3231287190
 C         -2.3285707133        0.5843421198        1.1712373898
 C         -2.9311271710        1.7757443068        0.7541032602
 C         -2.6943048183        2.9590049708        1.4304496466
 O         -3.7852297443        1.8272102828       -0.3186543237
 C         -4.0603029798        0.6473371594       -0.9623132175
 C         -4.9596230184        0.7098617935       -2.0111311925
 C         -5.2660198930       -0.4275308067       -2.7424185176
 C         -4.6527988705       -1.6222234277       -2.4247988619
 C         -3.7542960212       -1.6913524148       -1.3709144506
 C         -3.4558975381       -0.5680595309       -0.6100576467
 N         -2.5651423923       -0.6007151310        0.4683616150
 C         -1.6783341940       -1.6783382332        0.6400125095
 C         -2.1106661489       -2.9351675457        0.9870622287
 C         -1.2028999970       -3.9981759639        1.1247529885
 C          0.1372327132       -3.8177235399        0.9264553572
 C          0.6257059027       -2.5405979930        0.5793287365
 N          1.9382988234       -2.3519157493        0.3799757757
 C          2.3540602757       -1.1422459329        0.0552315726
 C          3.7632982656       -0.9168919435       -0.1796802094
 C          4.6527110670       -1.9907484185       -0.0861326547
 C          5.9957860331       -1.8135324457       -0.3227508435
 C          6.4672030684       -0.5505557458       -0.6624133583
 C          5.6012714155        0.5172993318       -0.7540644637
 C          4.2303395376        0.3707751529       -0.5120316802
 C          3.2984840897        1.4883270160       -0.5883924406
 C          3.7103645346        2.7991473887       -0.8552993811
 C          2.8073160252        3.8385728256       -0.9131552009
 C          1.4520343581        3.6097502594       -0.7034008953
 C          1.0162390741        2.3330510049       -0.4369842979
 C          1.9225079071        1.2704545989       -0.3785360946
 C          1.4375906767       -0.0557420846       -0.0748821394
 N          0.1437265790       -0.2341881351        0.1028004380
 C         -0.2871600279       -1.4558521513        0.4335932182
 H         -1.6816435138        3.9005465327        3.0615927552
 H         -0.6954700124        1.7833784353        3.8806605238
 H         -1.1232849881       -0.3156025864        2.6889918650
 H         -3.1640145627        3.8591051845        1.0668796176
 H         -5.4005288228        1.6652814755       -2.2468581386
 H         -5.9691280937       -0.3685498806       -3.5581828808
 H         -4.8642424702       -2.5137217436       -2.9953235610
 H         -3.2690536149       -2.6291113191       -1.1520860371
 H         -3.1615677088       -3.1056860414        1.1687252278
 H         -1.5833328240       -4.9709910153        1.3990872381
 H          0.8437224027       -4.6262516756        1.0264493226
 H          4.2491498760       -2.9567928372        0.1735396660
 H          6.6791282987       -2.6463098707       -0.2502543525
 H          7.5195021589       -0.4028655543       -0.8570542936
 H          6.0037817807        1.4806789457       -1.0231909610
 H          4.7539014427        3.0182343621       -1.0155305227
 H          3.1586877637        4.8391141926       -1.1194585650
 H          0.7493228787        4.4281383131       -0.7450514843
 H         -0.0263260627        2.1221177366       -0.2575821508
  55
  -91.1027762600000       0.349790225776125      !
 C         -4.1661272045        1.8986222223        3.7903689541
 C         -3.5453842798        0.7103112409        4.1167300603
 C         -2.9922801168       -0.0874126859        3.1265747457
 C         -3.0542103817        0.2849241518        1.7896787774
 C         -3.6575247092        1.5104373574        1.4733491051
 C         -4.2126682527        2.2998657167        2.4641331221
 O         -3.7125366346        2.0024792386        0.1940569453
 C         -3.1933103929        1.2192993659       -0.8056687182
 C         -3.2764034567        1.7071103473       -2.0975639345
 C         -2.8065053129        0.9511898326       -3.1603657800
 C         -2.2868932956       -0.3066791214       -2.9251105130
 C         -2.2037072609       -0.7981357326       -1.6328460943
 C         -2.6154560746       -0.0289886368       -0.5516562254
 N         -2.5199941603       -0.4997521771        0.7614562039
 C         -1.6138703637       -1.5371450300        1.0447435542
 C         -1.9958530800       -2.6866586818        1.6925297320
 C         -1.0618043995       -3.6937028608        1.9865622000
 C          0.2527030107       -3.5680759368        1.6341476821
 C          0.6864869363       -2.4076020510        0.9594017474
 N          1.9749483055       -2.2697933374        0.6141783629
 C          2.3399373356       -1.1677217308       -0.0134020285
 C          3.7272536190       -0.9877152533       -0.3806933875
 C          4.6580667403       -1.9732529052       -0.0411657290
 C          5.9876362446       -1.8236782637       -0.3593632785
 C          6.4045981434       -0.6754267047       -1.0229967175
 C          5.4962503352        0.3021013056       -1.3666498099
 C          4.1356517090        0.1764631714       -1.0624952187
 C          3.1548900600        1.1894038368       -1.4303534397
 C          3.4905153543        2.3391838496       -2.1547223180
 C          2.5386320009        3.2734681836       -2.5016077906
 C          1.2079582709        3.0946042989       -2.1399881968
 C          0.8468452006        1.9760928735       -1.4262231257
 C          1.8043502657        1.0240064876       -1.0649079509
 C          1.3919173370       -0.1486119475       -0.3294530893
 N          0.1268167821       -0.2663585006        0.0210958051
 C         -0.2527175712       -1.3789064527        0.6580296269
 H         -4.6026494369        2.5207491736        4.5556621838
 H         -3.4819859237        0.3916264940        5.1459713695
 H         -2.4925571787       -1.0019972408        3.4037652237
 H         -4.6687280013        3.2336134696        2.1749989147
 H         -3.7120846799        2.6817953843       -2.2493436526
 H         -2.8636618048        1.3427948701       -4.1638423611
 H         -1.9437096981       -0.9170010557       -3.7463890662
 H         -1.8064831345       -1.7864235677       -1.4588819155
 H         -3.0308442272       -2.8232546082        1.9694549243
 H         -1.4028594161       -4.5824866057        2.4965298740
 H          0.9797481225       -4.3325530087        1.8572861760
 H          4.2980043221       -2.8475218771        0.4780194623
 H          6.7032611537       -2.5875427709       -0.0946220059
 H          7.4477990789       -0.5461503393       -1.2721468815
 H          5.8580353162        1.1794533085       -1.8784501064
 H          4.5103962685        2.5099900438       -2.4603293378
 H          2.8309625435        4.1492210720       -3.0626654588
 H          0.4649336834        3.8256200319       -2.4206367798
 H         -0.1777212937        1.8012168678       -1.1375766828
  55
  -91.1019099700000       0.139858334048410      !
 C         -2.0168698336        3.1579999876        2.2953652145
 C         -1.4625695903        2.0244290351        2.8580035690
 C         -1.6539771076        0.7859559098        2.2676295967
 C         -2.3840278568        0.6651076705        1.0918657468
 C         -2.9876793286        1.8102366600        0.5614556644
 C         -2.7945614608        3.0458733649        1.1529728769
 O         -3.7998101016        1.7642126188       -0.5432455241
 C         -4.0447494110        0.5321063068       -1.0941254934
 C         -4.9161610552        0.4967211914       -2.1677071773
 C         -5.1901779385       -0.7001840101       -2.8114196544
 C         -4.5723991261       -1.8563987096       -2.3811246241
 C         -3.7023101703       -1.8271166690       -1.3019609283
 C         -3.4366480914       -0.6420433621       -0.6273032508
 N         -2.5744937856       -0.5736806516        0.4742388572
 C         -1.6733491651       -1.6211886061        0.7362950907
 C         -2.1036345198       -2.8602846129        1.1465695572
 C         -1.1987825037       -3.9184606610        1.3288766802
 C          0.1364334617       -3.7575433932        1.0855755699
 C          0.6227788485       -2.4992043847        0.6745950199
 N          1.9234842374       -2.3419267588        0.3880234130
 C          2.3480726805       -1.1418937134        0.0440127491
 C          3.7281613664       -0.9571814281       -0.3471175797
 C          4.5528536647       -2.0733654210       -0.5075678362
 C          5.8531012474       -1.9293389822       -0.9330397342
 C          6.3448388625       -0.6583121022       -1.2075947081
 C          5.5452624361        0.4518141435       -1.0407994788
 C          4.2222074576        0.3380333818       -0.5999022435
 C          3.3602658652        1.4965177589       -0.4057766443
 C          3.8374383713        2.8102404973       -0.4685373940
 C          2.9970695680        3.8877785265       -0.2874187891
 C          1.6421267669        3.6933325174       -0.0436970321
 C          1.1451140178        2.4130881467        0.0346167317
 C          1.9905484340        1.3127806462       -0.1319266178
 C          1.4631907933       -0.0210335274        0.0400804255
 N          0.1707522347       -0.1798847945        0.2420229306
 C         -0.2801210232       -1.4036937308        0.5366304775
 H         -1.8620208639        4.1261832541        2.7453494535
 H         -0.8769813218        2.0957410139        3.7617086394
 H         -1.2240073609       -0.0969111182        2.7152091980
 H         -3.2623732883        3.9073036114        0.7031715281
 H         -5.3621015233        1.4236103173       -2.4916247799
 H         -5.8722725594       -0.7177938161       -3.6467474396
 H         -4.7580057324       -2.7944382558       -2.8816174638
 H         -3.2124518064       -2.7379428176       -0.9971879823
 H         -3.1546421492       -3.0205162791        1.3372518031
 H         -1.5788781482       -4.8744422055        1.6573580429
 H          0.8392673299       -4.5684332481        1.1915888482
 H          4.1329169273       -3.0447939704       -0.2984676606
 H          6.4854952180       -2.7949199571       -1.0621539533
 H          7.3602649849       -0.5376890708       -1.5560655917
 H          5.9557312597        1.4214991710       -1.2738255880
 H          4.8849685493        2.9978572694       -0.6436563471
 H          3.3977059565        4.8900876589       -0.3328920056
 H          0.9871077152        4.5402215552        0.0943256335
 H          0.1030978439        2.2286707545        0.2434062325
  55
  -91.1016452800000       0.105692762458923      !
 C         -2.1305767542        3.1639560161        2.3523306934
 C         -1.5495136585        2.0410622276        2.9088331900
 C         -1.7001545530        0.8034586407        2.3044013082
 C         -2.4171330899        0.6734165098        1.1217859653
 C         -3.0437459585        1.8076743889        0.5937228404
 C         -2.8909694558        3.0419091045        1.1991124741
 O         -3.8408676047        1.7522055035       -0.5218246036
 C         -4.0158812998        0.5262309081       -1.1116330088
 C         -4.8372748241        0.4848092054       -2.2236587774
 C         -5.0411438787       -0.7066654441       -2.9028899855
 C         -4.4043686441       -1.8509052994       -2.4683802441
 C         -3.5837966005       -1.8156811333       -1.3512447011
 C         -3.3878754140       -0.6364956719       -0.6432918621
 N         -2.5753774609       -0.5645305821        0.4947775301
 C         -1.6723860600       -1.6064916483        0.7779551363
 C         -2.1067449407       -2.8438427616        1.1877774621
 C         -1.2027628924       -3.8998964184        1.3870824056
 C          0.1338561235       -3.7402336336        1.1505548146
 C          0.6219107432       -2.4861423981        0.7285594838
 N          1.9192880265       -2.3362661188        0.4237284121
 C          2.3429371387       -1.1414631161        0.0614938685
 C          3.7106600559       -0.9688843314       -0.3755515137
 C          4.5209520614       -2.0918904903       -0.5599534317
 C          5.8028566385       -1.9600870217       -1.0414612735
 C          6.2899726681       -0.6949754600       -1.3493364833
 C          5.5060245919        0.4221363646       -1.1567443403
 C          4.2030509953        0.3210003037       -0.6570923663
 C          3.3597376559        1.4872159279       -0.4294035911
 C          3.8469563394        2.7963629854       -0.5070177256
 C          3.0247233799        3.8811682405       -0.2890896539
 C          1.6788743945        3.6988101687        0.0084511671
 C          1.1722321047        2.4230741069        0.1005716419
 C          1.9996669356        1.3156257679       -0.1045391929
 C          1.4654755752       -0.0144084622        0.0754674188
 N          0.1750339266       -0.1662179796        0.2929216826
 C         -0.2787084715       -1.3890904304        0.5875496679
 H         -2.0088854031        4.1313961640        2.8139597571
 H         -0.9754370239        2.1194043994        3.8193682392
 H         -1.2514873376       -0.0714581338        2.7490380710
 H         -3.3761638582        3.8948685690        0.7516889379
 H         -5.2998922299        1.4029479305       -2.5490826092
 H         -5.6825032143       -0.7284991684       -3.7698145773
 H         -4.5355170046       -2.7836434128       -2.9953739913
 H         -3.0803338127       -2.7167982741       -1.0391402025
 H         -3.1608377265       -3.0046185855        1.3602521343
 H         -1.5846394042       -4.8533595722        1.7206483313
 H          0.8358665301       -4.5507870412        1.2645492104
 H          4.1028978963       -3.0588587123       -0.3277241042
 H          6.4232441566       -2.8310390857       -1.1908309857
 H          7.2888039782       -0.5846828942       -1.7457514242
 H          5.9115659786        1.3870457996       -1.4166558098
 H          4.8889684342        2.9741292308       -0.7211226163
 H          3.4329677299        4.8797761658       -0.3465358681
 H          1.0387164080        4.5516254369        0.1767872091
 H          0.1372453519        2.2477122052        0.3496005519
  55
  -91.1010130800000       5.413850332482027E-002 !
 C         -2.5920914230        2.6105878350        3.3443345165
 C         -2.0620256698        1.3958094986        3.7283005497
 C         -2.0598867071        0.3244848112        2.8479906883
 C         -2.5908025994        0.4547844669        1.5724542375
 C         -3.1273926619        1.6902504530        1.1915482790
 C         -3.1230376691        2.7565419924        2.0708731826
 O         -3.6744825643        1.9004275965       -0.0509955378
 C         -3.5230288432        0.8967452976       -0.9766833100
 C         -3.9147042571        1.1671712982       -2.2743434106
 C         -3.7947126790        0.1960289966       -3.2578910661
 C         -3.2760268776       -1.0414659939       -2.9360999008
 C         -2.8772597101       -1.3158793209       -1.6367172318
 C         -2.9957824964       -0.3559533990       -0.6415790252
 N         -2.6344747104       -0.6234277633        0.6828946751
 C         -1.7268788958       -1.6924738980        0.9078643276
 C         -2.1290363186       -2.9024491576        1.4024132926
 C         -1.1946447605       -3.9358056895        1.6053180476
 C          0.1291355457       -3.7615478258        1.3164910599
 C          0.5805512317       -2.5259956650        0.8039665866
 N          1.8762571257       -2.3392098337        0.5136619137
 C          2.2431515015       -1.1661427309        0.0333753886
 C          3.6348357253       -0.9388457027       -0.2884204056
 C          4.5604633894       -1.9649993130       -0.0800238125
 C          5.8912191132       -1.7817351274       -0.3745282939
 C          6.3141195026       -0.5597723580       -0.8849233875
 C          5.4115022763        0.4599522140       -1.0954699529
 C          4.0508997949        0.3043798034       -0.8061493645
 C          3.0792279519        1.3687502120       -1.0209219820
 C          3.4310949251        2.6216129392       -1.5362651194
 C          2.4901196689        3.6103135173       -1.7274364938
 C          1.1550776049        3.3868072465       -1.4099460001
 C          0.7780544487        2.1656008872       -0.9027005409
 C          1.7231215633        1.1548554154       -0.7054578364
 C          1.2941581686       -0.1180255228       -0.1745756038
 N          0.0191769260       -0.2898604524        0.1094990873
 C         -0.3591433869       -1.4772249169        0.5965794428
 H         -2.5965045607        3.4475259278        4.0250426662
 H         -1.6447240274        1.2699121590        4.7158010440
 H         -1.6432769447       -0.6238069701        3.1531787879
 H         -3.5396605995        3.6948787215        1.7411383574
 H         -4.3115435620        2.1449055586       -2.4970433380
 H         -4.1060037160        0.4152329251       -4.2672628597
 H         -3.1763258698       -1.8050129474       -3.6922537496
 H         -2.4711868555       -2.2854328369       -1.3907603728
 H         -3.1707420061       -3.0637042285        1.6360969412
 H         -1.5432703064       -4.8799421607        1.9967072389
 H          0.8530521704       -4.5467574332        1.4677068367
 H          4.1952610360       -2.8986922786        0.3178274345
 H          6.6025902460       -2.5773582711       -0.2115630501
 H          7.3574194353       -0.4059212829       -1.1189566912
 H          5.7775464827        1.3931837344       -1.4924273752
 H          4.4560478722        2.8339655883       -1.7951265870
 H          2.7951223654        4.5662724338       -2.1276227202
 H          0.4225411811        4.1651376255       -1.5608824789
 H         -0.2486300359        1.9570900887       -0.6458426703
