56
 energy: -93.581551708698 gnorm: 0.000110504639 xtb: 6.7.1 (edcfbbe)
N            8.99356275402243        0.83369917702088       -0.82334569131312
C            7.90201907181167        0.55874437229647       -0.57615182758383
C            6.58685547353007        0.21651511641586       -0.26732910693470
N            5.56356713172587        0.82968152022781       -0.82855398218108
C            4.33842508543962        0.53463059895011       -0.56956130173057
C            4.06413911176171       -0.57343859538753        0.42887469365397
N            5.07078057587229       -1.16540078325878        0.97080113152502
C            6.32198265468767       -0.85139027011808        0.70080244390307
C            7.38732171431544       -1.51311044079632        1.30871508467088
N            8.27497855479469       -2.05428581107203        1.80616716375578
C            2.65349791801345       -0.70352499407909        0.53357039735467
C            1.80126026403259       -1.52934379393518        1.25716517561737
C            0.43039500596724       -1.35549537576324        1.09106339789875
C           -0.13555614795907       -0.39912604126738        0.25270575172793
C           -1.59673223911709       -0.26303883082074        0.19220044721503
C           -2.39951770906553       -1.38173156106307       -0.00796374315995
C           -3.78752917499248       -1.26346777544365       -0.06572744819373
C           -4.62535227784737       -2.44740145039495       -0.30275660255208
C           -4.33259747381909       -3.66114131600772        0.31967562060970
C           -5.12674322451337       -4.77146464881704        0.10384553592444
C           -6.21976595166594       -4.69276011357260       -0.74516237384216
C           -6.51733211345912       -3.49307544919230       -1.37293237014985
C           -5.73057937794024       -2.37869580838268       -1.15121408547427
C           -4.36657895425108       -0.00903853806259        0.10290355221737
C           -3.58270021840607        1.11878784631816        0.32566959750517
C           -4.20502996886823        2.43430766715722        0.53238532544016
C           -3.65850148237312        3.57982131985607       -0.04596655464161
C           -4.25100065728026        4.81405338433557        0.14376304526475
C           -5.39131039475794        4.92761477647347        0.92359302319674
C           -5.93874858524227        3.79686544804709        1.50947727121380
C           -5.35422071721023        2.55996967755561        1.31285066713588
C           -2.19566471514947        0.98287113774555        0.36037699280061
C            0.71443231555271        0.44307849700037       -0.51930043852989
C            0.34620198079280        1.41373411326316       -1.47665529675462
C            1.30804870089664        2.14808081186558       -2.14426343419797
C            2.67792440573378        1.98046385751741       -1.93446740152942
C            3.07717865006620        1.01374914473345       -1.02148447929110
C            2.09022553324107        0.25938189362454       -0.33949445430519
H            2.18677086609733       -2.27853674040478        1.93058478308195
H           -0.23513056391233       -1.98276309763484        1.66677331979630
H           -1.93698608755732       -2.34449020224094       -0.16603144784141
H           -3.49252838257501       -3.72568416917011        0.99562429508485
H           -4.89434817190671       -5.70285322743441        0.59968055782273
H           -6.83638675878895       -5.56266312009564       -0.91741839851828
H           -7.36526081243490       -3.42817061339687       -2.03935808153610
H           -5.95746060365385       -1.45181289689841       -1.65741903817719
H           -5.44093185866102        0.08941237766589        0.06642139342957
H           -2.77789920882489        3.49812261233273       -0.66604260328834
H           -3.82309640178321        5.69239369761353       -0.31754312513563
H           -5.85067458916597        5.89338819722209        1.07522835536046
H           -6.82364405884133        3.88147826737766        2.12364305879437
H           -5.77526475162594        1.68503373089636        1.78635937666417
H           -1.57943240675735        1.84336169509432        0.57379414522407
H           -0.69714166059621        1.57091870727284       -1.70208626676664
H            0.99059438150033        2.88510020057789       -2.86772367414093
H            3.39981064859930        2.57442134793828       -2.47237266134493
