56
 energy: -93.581576209626 gnorm: 0.000092917063 xtb: 6.7.1 (edcfbbe)
N            8.99627572928971        0.82166878105791       -0.78610626446457
C            7.90342983954267        0.55149471732009       -0.53927188949570
C            6.58654846902914        0.21554716690637       -0.23098855862048
N            5.56645126378967        0.82005915377359       -0.80727442920834
C            4.33985634800035        0.53102432999608       -0.54818989801174
C            4.05992727492279       -0.55854361515085        0.46880918673802
N            5.06346008523256       -1.14243740432812        1.02503550296965
C            6.31623307186806       -0.83540544884098        0.75403980616863
C            7.37799249485729       -1.48848467560551        1.37719339187525
N            8.26248925701014       -2.02339912821421        1.88692590517143
C            2.64871785813283       -0.68555697782305        0.56947661037575
C            1.79246207432086       -1.49860552846702        1.30273337504770
C            0.42236137102209       -1.32718913283098        1.12700703363352
C           -0.13841745423763       -0.38501903322238        0.26960080404944
C           -1.59949660629642       -0.25231215200106        0.19425326149662
C           -2.39692811181454       -1.37524623475916       -0.00290258012046
C           -3.78550842518836       -1.26461722475689       -0.06593011482616
C           -4.61575937285427       -2.45571566592410       -0.29373846486844
C           -5.81332680547273       -2.63150635461762        0.40002691500915
C           -6.59065244140702       -3.75446471214953        0.18851241902861
C           -6.19102084140551       -4.71714866461154       -0.72536316835146
C           -5.00498688169456       -4.55125987691772       -1.42357700603265
C           -4.22136195019512       -3.43353092969482       -1.20743594096719
C           -4.37074272949830       -0.01164018902511        0.09022421661562
C           -3.59148397436914        1.12306366178477        0.29576396855802
C           -4.21942764675664        2.44060343669250        0.46686093146439
C           -5.37746801270797        2.57946007277123        1.23232389794162
C           -5.96611246223051        3.81857049987754        1.39924567558958
C           -5.41431946751966        4.93903620954895        0.79773650593156
C           -4.26548629568414        4.81267668523913        0.03230819444012
C           -3.66930943210952        3.57616374194778       -0.12796841619523
C           -2.20393805353274        0.99314488209280        0.34108211985084
C            0.71561595479350        0.44366065955761       -0.51249557142122
C            0.35247413813805        1.39754701760267       -1.48859596592951
C            1.31801365042783        2.11920808289123       -2.16461621109130
C            2.68678057234224        1.95449742428307       -1.94538785971906
C            3.08115100348844        1.00346595990450       -1.01398219771542
C            2.09041195104501        0.26238739359438       -0.32293666685996
H            2.17412726153640       -2.23666034698164        1.99049663765030
H           -0.24677404892461       -1.94501754967874        1.70897034151091
H           -1.93152752415315       -2.34377355376562       -0.10813757963281
H           -6.12214894961668       -1.89480946287127        1.12705114671302
H           -7.51143933975057       -3.88236074561724        0.73911363264566
H           -6.80070283419561       -5.59293528525009       -0.89237258045708
H           -4.69152683581398       -5.29661503701709       -2.14025131614273
H           -3.30697225971487       -3.30350871952879       -1.76772174610876
H           -5.44270437458567        0.08795580875363        0.01063991107732
H           -5.80193213832742        1.71340258569894        1.71854939490007
H           -6.85755955916813        3.91343579164959        2.00230332951290
H           -5.87708685085247        5.90655418397994        0.92586091972641
H           -3.83401499404242        5.68291897875874       -0.44082898993753
H           -2.78220874162618        3.48442880201420       -0.73718623375319
H           -1.59241070153762        1.85927999842861        0.54505379534440
H           -0.68968727664991        1.55145526006710       -1.72167575834439
H            1.00454256592991        2.84327076297522       -2.90276632144235
H            3.41154805185223        2.53842644728192       -2.49036821868400
