56
 energy: -93.637952747011 gnorm: 0.000135935432 xtb: 6.7.1 (edcfbbe)
N            8.98435804099343        0.81316921944078       -0.78361306847775
C            7.88984749774972        0.55403589357391       -0.55956085202961
C            6.55282386505385        0.20516535950878       -0.25560634357952
N            5.56544786602175        0.87010459750005       -0.86889672479334
C            4.34442133465287        0.50499992782300       -0.54675089964842
C            4.08507756263508       -0.54544416048172        0.41178757311435
N            5.05872666330480       -1.19987578423274        1.00877897834228
C            6.29960274108699       -0.82645653470601        0.67608450599591
C            7.38873683452340       -1.49672868735748        1.28251375723737
N            8.29207392895917       -2.02201936922310        1.75490198197004
C            2.65662559699741       -0.69875605025269        0.54013465054735
C            1.81351710885617       -1.51974576671627        1.25882221015047
C            0.43376386295126       -1.35142606822386        1.10030173910926
C           -0.13500887590336       -0.40127290477677        0.26312748640365
C           -1.59548134029658       -0.26398249614153        0.20135068627120
C           -2.39626182166079       -1.38341604327195       -0.00451210045961
C           -3.78059395158769       -1.26330567266477       -0.06585002621797
C           -4.62363430500264       -2.44650550681997       -0.30523948531612
C           -4.35326737512831       -3.65261506453599        0.33728259933996
C           -5.14926700752260       -4.76156060105556        0.11573700250467
C           -6.22322549383807       -4.68562173893157       -0.75590837556261
C           -6.49892030001318       -3.49186478791361       -1.40238169571676
C           -5.70825827212356       -2.37994611958402       -1.17687895464697
C           -4.35798143027169       -0.00898946305457        0.10667783150028
C           -3.57502026558459        1.11835281020978        0.33512645074899
C           -4.20199175330364        2.43500900321369        0.53802966555964
C           -3.67123852624742        3.57613778537477       -0.05915700196938
C           -4.26654097903454        4.81013989186667        0.12880791133945
C           -5.39597281430204        4.92519369938525        0.92247097155736
C           -5.92854964659024        3.79754850911902        1.52567053012532
C           -5.33906517722991        2.56156632570530        1.33289722947402
C           -2.19110247796896        0.98311894492656        0.37108936822833
C            0.71469643980090        0.43856999175811       -0.51476820929578
C            0.34400551613272        1.40432992925920       -1.47745776230561
C            1.30197928704588        2.13405667718130       -2.14742052253235
C            2.67836046481615        1.96202378410513       -1.93202339343788
C            3.07521291159800        1.00735196351766       -1.02270633949374
C            2.08913619297396        0.25809025084035       -0.33539916047995
H            2.20098790633518       -2.26789976130841        1.93305972596675
H           -0.22708733971617       -1.97888133350325        1.68034799408512
H           -1.93383178183108       -2.34617930758239       -0.16321273702569
H           -3.52698407702034       -3.71531652032113        1.03058521044383
H           -4.93228840905008       -5.68912275030824        0.62597035099772
H           -6.84270600191213       -5.55320892442147       -0.93071747914526
H           -7.33281458879298       -3.42764473783522       -2.08667348096675
H           -5.91990982412715       -1.45641394105298       -1.69624790894917
H           -5.43252689697247        0.09023125826909        0.06784757961730
H           -2.79839943329862        3.49356911351546       -0.69033098545487
H           -3.84877008057012        5.68642846980318       -0.34591205422025
H           -5.85914703587140        5.88983954840245        1.07089618081821
H           -6.80643123761482        3.88219332281724        2.15017567879607
H           -5.75019950915321        1.68836014050012        1.81870519080938
H           -1.57474720815705        1.84328241744045        0.58625906094033
H           -0.70067163548364        1.55824119448624       -1.70009829374712
H            0.98727843366349        2.86590516062045       -2.87649144088085
H            3.39953280480018        2.55266693906112       -2.47542771918148
