78
 energy: -102.309525811385 gnorm: 0.000043275088 xtb: 6.7.1 (edcfbbe)
C           -5.50655100798087        4.79923024902250       -0.60495617256097
C           -4.09225771255114        5.01464415849974       -0.04325862959258
C           -4.18309588735178        5.51167928983846        1.40866424950708
C           -3.40678940231125        6.10104772596664       -0.87747799185572
C           -3.33996489404994        3.69723840926435       -0.06613682213361
C           -2.14101133013519        3.51185413284934       -0.75962520494649
C           -1.47957802721642        2.30532510298040       -0.75209360905594
C           -2.00059557851300        1.20877398114217       -0.04458801110560
N           -1.31371590377991        0.00291494457232        0.00297528293195
C            0.06141212605434       -0.00425188892423        0.00582750741794
C            0.79742550564128       -1.04468584459502       -0.65111806621681
C            2.15294451264532       -1.03668007534048       -0.65234983558998
C            2.91548325147114       -0.01450629040148        0.00494958800182
B            4.44020508631881       -0.01779905240974        0.00156638780383
O            5.22962321559227        0.95607373082069        0.60198421487173
C            6.59003521420492        0.53297285345388        0.55283645674990
C            6.94167809264419       -0.02729720502245        1.93955557634222
C            7.48990003535327        1.73406486849703        0.26208956513398
C            6.58497324805781       -0.57436245448003       -0.56317644818059
C            7.48394551375720       -1.77756187189337       -0.27851057801762
C            6.92864588699618       -0.01487926633474       -1.95221901785027
O            5.22321213536693       -0.99408510682145       -0.60336257397189
C            2.16077849079368        1.01190125967552        0.66455157386571
C            0.80536771883344        1.02969580048805        0.66413131049907
C           -2.01352590128056       -1.19572567356665        0.04737486067514
C           -1.50830624047788       -2.29701121291652        0.75873733177372
C           -2.18306396341361       -3.49618653925894        0.76411990984977
C           -3.37999449160418       -3.66933720212255        0.06400328316719
C           -4.14585406764907       -4.97886163771826        0.03743434882378
C           -5.56364600747187       -4.74758646244969        0.58374148026208
C           -3.48035224986822       -6.06976683726468        0.88188666140390
C           -4.22668695357584       -5.47891699224657       -1.41406541295411
C           -3.87254152247848       -2.56364281350502       -0.64611169267670
C           -3.21688750590368       -1.35813311900827       -0.65972684701958
C           -3.20624191538358        1.38350759000055        0.65577879509322
C           -3.84874476315442        2.59600210519040        0.63960359916921
H           -6.06514628633264        4.08050079035900       -0.01201085376519
H           -6.05437336211613        5.73918899217989       -0.60467382633303
H           -5.45294035397978        4.43123514031901       -1.62768622526464
H           -4.72205212225125        4.80769638432855        2.03657802350365
H           -3.18598073689333        5.64567379171774        1.82363161270748
H           -4.70268852260952        6.46688789725148        1.44356157602346
H           -3.98971334968529        7.01851013873865       -0.82605306144930
H           -3.33618961804129        5.80695337864911       -1.92229017977522
H           -2.41021737069179        6.31598539714506       -0.49851199862416
H           -1.71048940940580        4.31905481357643       -1.32888525278291
H           -0.56783738275886        2.17803169861028       -1.31683343406155
H            0.24535219085485       -1.79955040559794       -1.19332622698881
H            2.70402616891333       -1.80683935573091       -1.17234431184230
H            7.98564059814860       -0.32052739735351        1.99071136359507
H            6.75193136240381        0.74583714290329        2.68150024943045
H            6.30601571450092       -0.87869080562612        2.17230777432641
H            7.15788925581149        2.26670724264230       -0.62355456664267
H            7.44392481946447        2.42031259917385        1.10464532493375
H            8.51738513785856        1.40782523353994        0.12790924006602
H            7.43079185206219       -2.46365952748944       -1.12076612207609
H            8.51304240095988       -1.45365341568500       -0.15120785955238
H            7.15669251025837       -2.30950107287353        0.60931867598063
H            7.97276462203039        0.27648760141381       -2.01024009256069
H            6.73264950386401       -0.78774772188087       -2.69281664368664
H            6.29290981346933        0.83757319180471       -2.18091046249833
H            2.71774880824652        1.77743736181062        1.18509432623416
H            0.25902208208017        1.78779779220304        1.20763616366591
H           -0.59817572133945       -2.17906956529412        1.32810603010209
H           -1.76474391841168       -4.30732056845942        1.33686668233404
H           -5.51701189740507       -4.37519841226006        1.60522972280406
H           -6.12012684052407       -5.68244701365337        0.58230177136045
H           -6.10967005781328       -4.02672430146518       -0.01821722055083
H           -3.41636950132185       -5.77256185924822        1.92626037770082
H           -4.07286224888307       -6.98093458583749        0.82816518730801
H           -2.48270848021940       -6.29717684382797        0.51316484421307
H           -3.22673525017236       -5.62515827704902       -1.81794123290725
H           -4.75654643584796       -6.42835193277903       -1.45209381837853
H           -4.75088140571518       -4.77049870164251       -2.04949412617767
H           -4.78718614232343       -2.65398654341447       -1.21149788134779
H           -3.60457784035207       -0.53181299032212       -1.23737770329654
H           -3.60618424108203        0.56086252026126        1.23032181928157
H           -4.76585666541091        2.69558368692806        1.19941088156777
