78
 energy: -102.416982203022 gnorm: 0.000077430903 xtb: 6.7.1 (edcfbbe)
C           -3.21067827791520        6.07995041597246        0.50035600195341
C           -4.14636761442953        4.98188231252385       -0.02720492072717
C           -4.55546809757184        5.29963072551502       -1.47338586038502
C           -5.41172179370924        4.97792404190345        0.83606059140782
C           -3.41298853275230        3.64940726788340        0.00157628596282
C           -2.24053845234154        3.49164989083786       -0.73581167437863
C           -1.53931171820036        2.30399306351072       -0.74464950802295
C           -1.98552493355227        1.21568561419089        0.00296816990105
N           -1.28060831183913        0.00349387007925        0.00139367716008
C            0.11291141352484        0.00027882234450        0.00050448404777
C            0.82450678639445       -0.99690373927797       -0.67159880644788
C            2.20297608302689       -0.99521874342329       -0.66552523809213
C            2.93229575287851       -0.00616478612212       -0.00087207649032
B            4.49232625454889       -0.00957513998198       -0.00136650361875
O            5.25753234749924        0.93439634560615        0.62736232009514
C            6.63302527857325        0.54212125929468        0.55524978055557
C            7.01667657443609        0.00462154211993        1.94039358867746
C            7.49192102576637        1.76615239692798        0.24171838953193
C            6.63049637168107       -0.56996903978318       -0.55894943699269
C            7.48457520324559       -1.79745110602931       -0.24576373326951
C            7.01573405184786       -0.03398798192829       -1.94423637663039
O            5.25336555742699       -0.95665375239647       -0.63045929398670
C            2.20814827817908        0.98627441923508        0.66439151607696
C            0.82972580087899        0.99426810224261        0.67179754970206
C           -1.99160946321892       -1.20506062949753        0.00180661776465
C           -1.54846797682634       -2.29608475052962        0.74731097153949
C           -2.25599715925316       -3.48001204002220        0.74051882035178
C           -3.43204220104345       -3.63120658511062        0.00749462970709
C           -4.17249954710201       -4.95971573891700        0.03856195179370
C           -4.57664792057782       -5.27668214932595        1.48631170558748
C           -3.24519890526901       -6.06228379782803       -0.49437948687900
C           -5.44184925849809       -4.94818892930102       -0.81875729564240
C           -3.86819048792727       -2.53317542048666       -0.72521625585800
C           -3.16382422326692       -1.34343381293621       -0.73521408248570
C           -3.15429681543401        1.36050472418643        0.74415966544400
C           -3.85231528306919        2.55400521242297        0.73631734625213
H           -2.90016908629646        5.85272513942698        1.51849769098582
H           -2.31950872640368        6.17040797884645       -0.11469173248946
H           -3.72308976857967        7.03989475509695        0.50177341426469
H           -3.68775588859229        5.38058081608391       -2.12233882171625
H           -5.20044531271706        4.51429870628582       -1.86300323414440
H           -5.09788917639434        6.24217787567069       -1.51067178380385
H           -5.17334593310164        4.78376406737670        1.87940806695527
H           -6.12155150422488        4.23141418383594        0.48682609919420
H           -5.89292806151777        5.95233255352650        0.77728817088455
H           -1.86038050276197        4.30978893952018       -1.32906464558933
H           -0.63802002145383        2.21125528888829       -1.33365353290765
H            0.28414893287372       -1.76777089523674       -1.20218949423988
H            2.74224196807261       -1.76919419566310       -1.19198942309404
H            8.06339280697303       -0.28042066318089        1.97178767479789
H            6.83934527909917        0.78711359262286        2.67516517826076
H            6.39376084845933       -0.84744212462920        2.20206452201386
H            7.13904043757799        2.27679634850193       -0.64862713401833
H            7.42957258622230        2.46158872881732        1.07539473562690
H            8.52807561426894        1.47054370572479        0.10593468152444
H            7.41912856845320       -2.49261157657984       -1.07943356349762
H            8.52195676671639       -1.50601948721916       -0.11033157906908
H            7.12995246711920       -2.30669862637510        0.64469471515749
H            8.06353641516619        0.24699621083093       -1.97603197697005
H            6.83510063471376       -0.81579671862696       -2.67892696022872
H            6.39600865499846        0.82047274818756       -2.20567740664862
H            2.75146921279118        1.75777123160923        1.19031896714994
H            0.29343400961851        1.76760619328711        1.20291499569514
H           -0.64466670839203       -2.20836830359818        1.33322603114429
H           -1.87799550033453       -4.30042084389841        1.33202589152483
H           -3.70641906274417       -5.36321392814617        2.13115035504078
H           -5.12416347807699       -6.21622143928197        1.52514936723468
H           -5.21540993647870       -4.48817263860077        1.87973853336963
H           -2.35126611772066       -6.15748680754660        0.11593121612060
H           -3.76249528673823       -7.01960588993181       -0.49348463385534
H           -2.93890791481136       -5.83619473569270       -1.51405369717534
H           -5.20733451074583       -4.75475340071762       -1.86310882901722
H           -5.92819087203913       -5.91993197890663       -0.75827888139942
H           -6.14581283732036       -4.19791963740404       -0.46575563364068
H           -4.76881937981247       -2.58866307046653       -1.31466034780159
H           -3.52424529334551       -0.51011470734113       -1.32133545476980
H           -3.51700705672504        0.52931442658882        1.33187820730344
H           -4.75042928548286        2.61451857313852        1.32909033806383
