78
 energy: -102.309506528116 gnorm: 0.000088002660 xtb: 6.7.1 (edcfbbe)
C           -3.13384730073947        6.09755797535760        0.53340503957077
C           -4.08142648437366        5.03336076587374       -0.04254944269160
C           -4.43508794626508        5.38825904266088       -1.49591266068563
C           -5.37371681394534        5.04797505612351        0.77973927783858
C           -3.38592854655848        3.68509825492009       -0.01767958033119
C           -2.18529076353713        3.51084342953249       -0.72051202158467
C           -1.51408669368092        2.31341426304976       -0.72842290366886
C           -2.02662033036142        1.20757479778784       -0.02820976916262
N           -1.33525099454403        0.00359633292342        0.00321325206464
C            0.03991140292571        0.00016715007087        0.00238286611597
C            0.77709007258288       -1.03171495901214       -0.66656476343762
C            2.13259669024438       -1.02189232562558       -0.66846886853891
C            2.89419138642921       -0.00662703086591        0.00060342759629
B            4.41890671915217       -0.00971074561144       -0.00066687447317
O            5.20743023499034        0.95917033919913        0.60899349633685
C            6.56783967007466        0.53618159694789        0.55939746336761
C            6.91689386523610       -0.03361620660888        1.94289747995423
C            7.46846878292035        1.73915304363038        0.27881498597342
C            6.56487991908428       -0.56338009014127       -0.56439799222521
C            7.46169480538727       -1.76955876016926       -0.28539010461528
C            6.91355682925980        0.00518200509734       -1.94849894529876
O            5.20285937418145       -0.98146477993974       -0.61164390943365
C            2.13826539568395        1.01207875206231        0.67087019449935
C            0.78283587995189        1.02837659965409        0.67064556627987
C           -2.03282001679711       -1.19670024924927        0.03557760213304
C           -1.52503180915740       -2.30543441203873        0.73483331707081
C           -2.20266151244747       -3.49920274153718        0.72792601300009
C           -3.40543157171922       -3.66700985577779        0.02704211143483
C           -4.10815097192422       -5.01150992092801        0.05304722193337
C           -4.46095915214065       -5.36481074106452        1.50701446457300
C           -3.16744434630870       -6.08073739260010       -0.52486502666817
C           -5.40208218754246       -5.01903565756717       -0.76675542953220
C           -3.89811976445787       -2.55896355464897       -0.67012381623483
C           -3.23700764532421       -1.35290760341885       -0.67061878400220
C           -3.22878223739919        1.37017244926884        0.67980160372780
C           -3.88343238148227        2.57979617407776        0.68031071179869
H           -2.86345073711241        5.84662145617311        1.55733567302371
H           -2.22073070746342        6.17483514469537       -0.05029007509257
H           -3.62143072021441        7.07016284251014        0.53375036641457
H           -3.54531094479887        5.45799851719285       -2.11538411811795
H           -5.08843920298455        4.62859923762673       -1.92060508732427
H           -4.95050925357674        6.34570772834898       -1.53088162074710
H           -5.17494634487722        4.82825100018229        1.82627184937870
H           -6.09262084171968        4.32933005526685        0.39291526270593
H           -5.82547396717297        6.03644799092504        0.72506030818936
H           -1.76954441948699        4.33178154011957       -1.28430138453619
H           -0.60321981752550        2.19710694276314       -1.29702949404176
H            0.22577629317831       -1.78150804102300       -1.21657351916028
H            2.68434348876933       -1.78542312749923       -1.19744233656587
H            7.96053902267253       -0.32802091057988        1.99369749408139
H            6.72665345240639        0.73476523864155        2.68963696506728
H            6.28019585789405       -0.88600303548989        2.16909892808642
H            7.13883643749261        2.27768417575826       -0.60415655406091
H            7.42031985596898        2.41984841328983        1.12574900621048
H            8.49629491899947        1.41374844021328        0.14520977351653
H            7.40967535104008       -2.45008486783359       -1.13223164934018
H            8.49089109623540       -1.44778452358374       -0.15356802074861
H            7.13169986662967       -2.30691338736102        0.59816131048851
H            7.95807919248458        0.29614462566134       -2.00102632584728
H            6.71956164921968       -0.76258969976691       -2.69489920633237
H            6.27927597058794        0.85964267773911       -2.17368225867495
H            2.69432392329489        1.77288564028385        1.19924776915723
H            0.23578712061737        1.78070167395528        1.22145367061585
H           -0.61264084192384       -2.19405218481205        1.30197333922605
H           -1.79041570741861       -4.32242639590171        1.29094616414156
H           -3.57038575429114       -5.43960631321215        2.12474887112004
H           -4.98156132391922       -6.31942506381447        1.54274266956585
H           -5.10932025637126       -4.60169383627940        1.93315697078555
H           -2.25351594885488       -6.16281618762713        0.05690276653669
H           -3.66019689663818       -7.05073086664433       -0.52410391664345
H           -2.89790761691359       -5.83129616322058       -1.54938745224545
H           -5.20411405517957       -4.80036124126859       -1.81365873187715
H           -5.85912543873742       -6.00503369291368       -0.71125186003726
H           -6.11630458610340       -4.29648535770283       -0.37854547305150
H           -4.81196864995845       -2.63462453304962       -1.23575345388106
H           -3.62506883796182       -0.52096585039957       -1.23979186339605
H           -3.62038684921744        0.54035905265274        1.24965922680767
H           -4.79591627713209        2.66040343364740        1.24745683711060
