  94
  -157.103955441300       0.367488755846210      !
 C          9.8667946162        3.0394962186        0.2191868572
 C          8.9327156488        3.2742534253       -0.7756729794
 C          7.7634706470        2.5375269006       -0.8173789675
 C          7.5184529210        1.5468605471        0.1294433046
 C          6.2665310950        0.7717905945        0.0811799794
 C          5.0695528544        1.4364665709       -0.0055872885
 C          3.8482258986        0.7364858689       -0.0036639306
 N          2.6906007484        1.4097488589       -0.0720034426
 C          1.5722442858        0.7086366075       -0.0654167910
 C          0.3105512697        1.4025473188       -0.1058266281
 C          0.2334509862        2.8045131125       -0.0956788352
 C         -0.9918566269        3.4162791442       -0.0922774623
 C         -2.1486053618        2.6068049841       -0.0883037598
 N         -3.4051995792        3.1934729032       -0.0058411487
 C         -4.4052996639        2.7297094508        0.8731113133
 C         -4.4209072211        1.4461469378        1.4016228924
 C         -5.3955890789        1.0682629340        2.3113032045
 C         -6.3788087585        1.9580458698        2.6971358538
 C         -6.3852977975        3.2383401077        2.1682888860
 C         -5.4057574060        3.6263513964        1.2706089225
 O         -5.4674331766        4.9218827909        0.8136445507
 C         -4.7007658152        5.2208811402       -0.2794004195
 C         -4.9750148660        6.3979239060       -0.9555677650
 C         -4.2485509001        6.7366656156       -2.0852523986
 C         -3.2744135833        5.8766890844       -2.5567843287
 C         -2.9993025452        4.6977998544       -1.8845033831
 C         -3.6783759932        4.3717116511       -0.7159669975
 N         -2.0833144445        1.2895990955       -0.1230571540
 C         -0.8974053813        0.6865028084       -0.1288701055
 C         -0.8783231090       -0.7658163651       -0.1493116314
 N         -2.0408355902       -1.3964244474       -0.2689252670
 C         -2.0795826993       -2.7192979185       -0.2754770274
 N         -3.3093670407       -3.3095483640       -0.4379087376
 C         -4.5314294355       -2.6261872838       -0.2273788866
 C         -4.7632383514       -1.3175690208       -0.6259468420
 C         -5.9816574997       -0.7161479417       -0.3554128268
 C         -6.9774133575       -1.4079980873        0.3087706986
 C         -6.7727842626       -2.7268996203        0.6757286313
 C         -5.5610215056       -3.3372411146        0.3982101472
 O         -5.4188715383       -4.6653918352        0.7356425717
 C         -4.5160713434       -5.3539539077       -0.0283445817
 C         -4.6813579029       -6.7214448361       -0.1833862348
 C         -3.8181161294       -7.4310333520       -0.9998581366
 C         -2.8217923501       -6.7685589525       -1.6957594375
 C         -2.6498677957       -5.4041595662       -1.5388457329
 C         -3.4622034376       -4.6913192273       -0.6654460428
 C         -0.9122873004       -3.4921879001       -0.0632556935
 C          0.2912187249       -2.8486166854        0.0334082673
 C          0.3459429498       -1.4472179597       -0.0476721582
 C          1.5885239530       -0.7233890819       -0.0052314509
 N          2.7243713806       -1.3931979529        0.0755741613
 C          3.8646261662       -0.6876987721        0.0856444932
 C          5.1036247266       -1.3516292949        0.1674685931
 C          6.2840417095       -0.6522628336        0.1579567057
 C          7.5592778357       -1.3891986086        0.1908516609
 C          8.5552878926       -1.1344796308       -0.7482730058
 C          9.7431248489       -1.8400530706       -0.7163111322
 C          9.9552467971       -2.8055814176        0.2538186076
 C          8.9668237644       -3.0716957222        1.1862096006
 C          7.7741141259       -2.3730396067        1.1518696914
 C          8.4592991431        1.3236456339        1.1313190461
 C          9.6235757796        2.0669748456        1.1749215532
 H         10.7804764466        3.6144656881        0.2510818601
 H          9.1162937559        4.0334260344       -1.5221301466
 H          7.0390927073        2.7128638014       -1.6001342542
 H          5.0364973138        2.5147426267       -0.0492053132
 H          1.1512847226        3.3711783680       -0.0675064607
 H         -1.0806877233        4.4910138322       -0.0537935573
 H         -3.6636597743        0.7450123495        1.0943354754
 H         -5.3803704908        0.0651700797        2.7081918265
 H         -7.1407398838        1.6663223337        3.4031014975
 H         -7.1341235458        3.9616938718        2.4493468820
 H         -5.7572645993        7.0359230983       -0.5770554808
 H         -4.4581860025        7.6611814500       -2.5997768560
 H         -2.7233350492        6.1161581343       -3.4530923290
 H         -2.2477005066        4.0227378393       -2.2646370687
 H         -3.9787924294       -0.7667523713       -1.1133645159
 H         -6.1458328026        0.3046403589       -0.6623225358
 H         -7.9183474745       -0.9300513761        0.5330312277
 H         -7.5361683061       -3.3003602149        1.1773436693
 H         -5.4879236842       -7.2073425709        0.3417673783
 H         -3.9407927016       -8.4972175026       -1.1091227097
 H         -2.1729344659       -7.3123370188       -2.3647886507
 H         -1.8815418258       -4.8846865928       -2.0908058834
 H         -0.9733817836       -4.5626443769        0.0488998991
 H          1.2109961243       -3.3925165066        0.1834873025
 H          5.0998077650       -2.4304648195        0.2103008405
 H          8.3902111476       -0.3896668494       -1.5128605259
 H         10.5075502669       -1.6348913143       -1.4513699638
 H         10.8870685267       -3.3508837118        0.2813183419
 H          9.1259567310       -3.8257324272        1.9433977667
 H          7.0070285202       -2.5725394699        1.8865710736
 H          8.2693115992        0.5731364818        1.8844616179
 H         10.3449559240        1.8864526276        1.9583274517
  94
  -157.103823238800       0.319512602766723      !
 C          9.9198269639        2.9519258443        0.2265423200
 C          8.9671243228        3.2318721350       -0.7384637396
 C          7.7793028943        2.5247074587       -0.7667441545
 C          7.5342974456        1.5186232095        0.1634984647
 C          6.2687071286        0.7655621618        0.1248827843
 C          5.0779228254        1.4462836436        0.0793554921
 C          3.8478786983        0.7605407818        0.0853066703
 N          2.6940379440        1.4433134326        0.0366311359
 C          1.5701494615        0.7500237902        0.0420568179
 C          0.3092360808        1.4473209663       -0.0039347773
 C          0.2344320756        2.8490973114       -0.0086387261
 C         -0.9904667314        3.4636027730       -0.0301411723
 C         -2.1473071341        2.6567130452       -0.0331553940
 N         -3.4078923129        3.2459969784        0.0091493206
 C         -4.4054603158        2.8268666375        0.9108308218
 C         -4.3506531788        1.6230608064        1.6003310911
 C         -5.3268144472        1.2897371410        2.5258788150
 C         -6.3826931563        2.1452486778        2.7706689681
 C         -6.4580827213        3.3462796433        2.0843691903
 C         -5.4773396597        3.6911119649        1.1705224729
 O         -5.6126427003        4.9145278703        0.5596280908
 C         -4.7888806894        5.1687169399       -0.5029979476
 C         -5.0841293222        6.2705840949       -1.2876388433
 C         -4.3056033046        6.5673001238       -2.3943964891
 C         -3.2545942819        5.7362051948       -2.7320541186
 C         -2.9590233711        4.6306541232       -1.9516892412
 C         -3.6944083421        4.3505210256       -0.8054767118
 N         -2.0857899193        1.3391735845       -0.0436998872
 C         -0.9013861975        0.7330741378       -0.0304861878
 C         -0.8879259028       -0.7194502355       -0.0411716655
 N         -2.0504049075       -1.3499741721       -0.1689630143
 C         -2.0870075464       -2.6720791766       -0.1781106806
 N         -3.3066391071       -3.2797682762       -0.3647608127
 C         -4.5471208416       -2.6631165374       -0.0756500615
 C         -4.8065372836       -1.3138492392       -0.2726641266
 C         -6.0402390593       -0.7857093771        0.0729430088
 C         -7.0256579337       -1.5897465339        0.6140487472
 C         -6.7922645739       -2.9438743887        0.7817940012
 C         -5.5651805455       -3.4802215973        0.4300033893
 O         -5.4006413583       -4.8393072443        0.5824886244
 C         -4.4495792038       -5.4002294691       -0.2246427533
 C         -4.5556706879       -6.7465163772       -0.5377730883
 C         -3.6372600782       -7.3304082663       -1.3927617935
 C         -2.6431523561       -6.5595136921       -1.9698705073
 C         -2.5328401059       -5.2159405463       -1.6573994778
 C         -3.4031438742       -4.6324904924       -0.7439756888
 C         -0.9217287632       -3.4451268121        0.0477571016
 C          0.2810361379       -2.8032758401        0.1524327315
 C          0.3340375458       -1.4020243730        0.0653059950
 C          1.5778591478       -0.6818079079        0.0964774021
 N          2.7088403233       -1.3613479380        0.1521900387
 C          3.8537350194       -0.6652791626        0.1479623079
 C          5.0852770990       -1.3454836033        0.1849495641
 C          6.2731715754       -0.6600977673        0.1637172429
 C          7.5352175082       -1.4196555215        0.1416896616
 C          8.5120134619       -1.1592886034       -0.8155997187
 C          9.6786357992       -1.8999451326       -0.8427247876
 C          9.8884070911       -2.9064221622        0.0852513124
 C          8.9198930296       -3.1760032005        1.0374257461
 C          7.7487662214       -2.4418189157        1.0625218766
 C          8.4936152896        1.2506411421        1.1364186088
 C          9.6763520925        1.9648791223        1.1671669979
 H         10.8482615655        3.5032384548        0.2472723238
 H          9.1510527303        4.0024980843       -1.4729570332
 H          7.0404805879        2.7344412586       -1.5271314142
 H          5.0586165346        2.5256757105        0.0611042098
 H          1.1526968374        3.4149367687        0.0243804113
 H         -1.0793587630        4.5388928225       -0.0102782562
 H         -3.5417966527        0.9407787848        1.4020898686
 H         -5.2539632405        0.3483684214        3.0478799364
 H         -7.1463742092        1.8885737780        3.4880390445
 H         -7.2647339742        4.0423390397        2.2515708963
 H         -5.9272500259        6.8833929429       -1.0114425363
 H         -4.5343475186        7.4339118318       -2.9944144425
 H         -2.6587366037        5.9389602388       -3.6085347238
 H         -2.1496056389        3.9758762433       -2.2354217319
 H         -4.0307766173       -0.6789830727       -0.6627665796
 H         -6.2236544581        0.2660547725       -0.0793700093
 H         -7.9799019040       -1.1721393997        0.8954081344
 H         -7.5447613290       -3.6032038369        1.1845110806
 H         -5.3600644097       -7.3159293993       -0.1004851236
 H         -3.7136414252       -8.3814585975       -1.6233210099
 H         -1.9478927312       -7.0012038144       -2.6668804810
 H         -1.7641586626       -4.6124364842       -2.1156009113
 H         -0.9872905590       -4.5156408691        0.1596116805
 H          1.2001494209       -3.3454042950        0.3120624301
 H          5.0675223860       -2.4248134304        0.2002670430
 H          8.3477024824       -0.3841568230       -1.5495812537
 H         10.4268719180       -1.6924394246       -1.5935835445
 H         10.8020824940       -3.4818244047        0.0639995933
 H          9.0764883494       -3.9623455994        1.7615372266
 H          6.9957246721       -2.6469656119        1.8100918997
 H          8.3040452059        0.4879213486        1.8773722984
 H         10.4119511680        1.7498586571        1.9283362446
  94
  -157.103803773700       0.312998641387067      !
 C          9.9094098922        2.9155920696        0.1926837011
 C          9.7060987493        1.8731500577       -0.6962798226
 C          8.5283943059        1.1511008539       -0.6643623906
 C          7.5334422655        1.4652150402        0.2581735269
 C          6.2672929190        0.7130373446        0.2794846435
 C          5.0780657287        1.3967314417        0.2608405700
 C          3.8480915918        0.7134889688        0.2048168156
 N          2.6975135400        1.4011699240        0.2087869738
 C          1.5718770121        0.7152146488        0.1264286516
 C          0.3164069187        1.4194923657        0.1598937666
 C          0.2480603666        2.8161655091        0.2937114115
 C         -0.9728776478        3.4312373294        0.3619926160
 C         -2.1388374426        2.6343276292        0.3010166116
 N         -3.3867109404        3.2300519599        0.3921020431
 C         -3.5822947986        4.3166698105        1.2615293888
 C         -2.8034433356        4.5029661933        2.3983450374
 C         -3.0016488352        5.5994989563        3.2198470324
 C         -3.9970923127        6.5150965699        2.9327425594
 C         -4.8261316588        6.3074062663        1.8434649770
 C         -4.6306327259        5.2106336724        1.0200409854
 O         -5.5030783255        5.0284107180       -0.0168966511
 C         -5.5312706173        3.7687555460       -0.5691852407
 C         -6.6371573662        3.4531263427       -1.3397796835
 C         -6.7309847239        2.2132978268       -1.9489515207
 C         -5.7127265883        1.2953199406       -1.7805763899
 C         -4.6067395264        1.6034994696       -1.0056772352
 C         -4.4990757607        2.8401578602       -0.3842839049
 N         -2.0796393733        1.3255887983        0.1342574506
 C         -0.8971798645        0.7210092612        0.0534174253
 C         -0.8885409963       -0.7186858052       -0.1376170280
 N         -2.0585436898       -1.3233677676       -0.3257750646
 C         -2.1036286606       -2.6332996567       -0.4879677189
 N         -3.3375974707       -3.2289950298       -0.6905034659
 C         -4.5215699906       -2.8218763117       -0.0380329572
 C         -4.6935545010       -1.5675677118        0.5314434550
 C         -5.8707926318       -1.2438463466        1.1857382559
 C         -6.8968087610       -2.1635746364        1.2836406645
 C         -6.7405335250       -3.4199643728        0.7230523683
 C         -5.5644034123       -3.7505462187        0.0719626632
 O         -5.4793388907       -5.0241887223       -0.4413175058
 C         -4.5168139595       -5.2241314849       -1.3917215967
 C         -4.6370270860       -6.3357156725       -2.2097496288
 C         -3.7116182864       -6.5621801383       -3.2143440407
 C         -2.6927082371       -5.6514408892       -3.4248854192
 C         -2.5704811728       -4.5394369225       -2.6094513223
 C         -3.4509299524       -4.3328837975       -1.5530941855
 C         -0.9375610620       -3.4309803757       -0.4319322692
 C          0.2723179920       -2.8153960032       -0.2573029576
 C          0.3292046610       -1.4176311415       -0.1285467590
 C          1.5765529402       -0.7132737392        0.0154447323
 N          2.7047633407       -1.3996680866        0.0333136781
 C          3.8506624235       -0.7123908257        0.1384284037
 C          5.0801509989       -1.3966900097        0.1900790847
 C          6.2669933861       -0.7140665670        0.2750846903
 C          7.5254914534       -1.4679995201        0.4054562753
 C          7.8047856571       -2.5273395053       -0.4533224819
 C          8.9790782900       -3.2455118943       -0.3226179251
 C          9.8843084265       -2.9229820032        0.6742494739
 C          9.6072739117       -1.8804707288        1.5429935767
 C          8.4380284773       -1.1560876209        1.4103067413
 C          7.7399118655        2.5244274728        1.1374077993
 C          8.9224474610        3.2403783110        1.1078244748
 H         10.8329989178        3.4748858780        0.1701087691
 H         10.4689861996        1.6210568877       -1.4181692830
 H          8.3695291986        0.3468025682       -1.3674702276
 H          5.0591427469        2.4761437405        0.2614322718
 H          1.1691894379        3.3769368419        0.3302381594
 H         -1.0535684099        4.5045166516        0.4383357324
 H         -2.0342522504        3.7846408689        2.6372011250
 H         -2.3735851907        5.7311984244        4.0873049158
 H         -4.1447565253        7.3783001076        3.5624261056
 H         -5.6317541055        6.9852395857        1.6109822298
 H         -7.4071034850        4.1993282118       -1.4556104341
 H         -7.5950554278        1.9754726409       -2.5496144087
 H         -5.7696605067        0.3246336393       -2.2481136719
 H         -3.8104867108        0.8895933242       -0.8882339564
 H         -3.8916860813       -0.8528899307        0.4715662565
 H         -5.9760763710       -0.2600495719        1.6160827037
 H         -7.8155953969       -1.9138400096        1.7910604147
 H         -7.5154845344       -4.1673361807        0.7863058877
 H         -5.4608257673       -7.0102074906       -2.0395558521
 H         -3.8016205724       -7.4365951265       -3.8393983388
 H         -1.9868858206       -5.7991325448       -4.2275695601
 H         -1.7821676035       -3.8247650943       -2.7898445711
 H         -1.0116415512       -4.5050011877       -0.5040491523
 H          1.1924492330       -3.3764366682       -0.2039000642
 H          5.0601949257       -2.4760569803        0.1880483711
 H          7.1040480943       -2.7723621511       -1.2387242757
 H          9.1884666607       -4.0602873165       -1.0004309893
 H         10.8012115320       -3.4844430205        0.7762045121
 H         10.3057168333       -1.6302372000        2.3280191730
 H          8.2212050962       -0.3511823424        2.0970782690
 H          6.9748738924        2.7711040891        1.8597442911
 H          9.0748183521        4.0544552938        1.8015012883
