  94
       -157.72796056
 C          9.8667946162        3.0394962186        0.2191868572
 C          8.9327156488        3.2742534253       -0.7756729794
 C          7.7634706470        2.5375269006       -0.8173789675
 C          7.5184529210        1.5468605471        0.1294433046
 C          6.2665310950        0.7717905945        0.0811799794
 C          5.0695528544        1.4364665709       -0.0055872885
 C          3.8482258986        0.7364858689       -0.0036639306
 N          2.6906007484        1.4097488589       -0.0720034426
 C          1.5722442858        0.7086366075       -0.0654167910
 C          0.3105512697        1.4025473188       -0.1058266281
 C          0.2334509862        2.8045131125       -0.0956788352
 C         -0.9918566269        3.4162791442       -0.0922774623
 C         -2.1486053618        2.6068049841       -0.0883037598
 N         -3.4051995792        3.1934729032       -0.0058411487
 C         -4.4052996639        2.7297094508        0.8731113133
 C         -4.4209072211        1.4461469378        1.4016228924
 C         -5.3955890789        1.0682629340        2.3113032045
 C         -6.3788087585        1.9580458698        2.6971358538
 C         -6.3852977975        3.2383401077        2.1682888860
 C         -5.4057574060        3.6263513964        1.2706089225
 O         -5.4674331766        4.9218827909        0.8136445507
 C         -4.7007658152        5.2208811402       -0.2794004195
 C         -4.9750148660        6.3979239060       -0.9555677650
 C         -4.2485509001        6.7366656156       -2.0852523986
 C         -3.2744135833        5.8766890844       -2.5567843287
 C         -2.9993025452        4.6977998544       -1.8845033831
 C         -3.6783759932        4.3717116511       -0.7159669975
 N         -2.0833144445        1.2895990955       -0.1230571540
 C         -0.8974053813        0.6865028084       -0.1288701055
 C         -0.8783231090       -0.7658163651       -0.1493116314
 N         -2.0408355902       -1.3964244474       -0.2689252670
 C         -2.0795826993       -2.7192979185       -0.2754770274
 N         -3.3093670407       -3.3095483640       -0.4379087376
 C         -4.5314294355       -2.6261872838       -0.2273788866
 C         -4.7632383514       -1.3175690208       -0.6259468420
 C         -5.9816574997       -0.7161479417       -0.3554128268
 C         -6.9774133575       -1.4079980873        0.3087706986
 C         -6.7727842626       -2.7268996203        0.6757286313
 C         -5.5610215056       -3.3372411146        0.3982101472
 O         -5.4188715383       -4.6653918352        0.7356425717
 C         -4.5160713434       -5.3539539077       -0.0283445817
 C         -4.6813579029       -6.7214448361       -0.1833862348
 C         -3.8181161294       -7.4310333520       -0.9998581366
 C         -2.8217923501       -6.7685589525       -1.6957594375
 C         -2.6498677957       -5.4041595662       -1.5388457329
 C         -3.4622034376       -4.6913192273       -0.6654460428
 C         -0.9122873004       -3.4921879001       -0.0632556935
 C          0.2912187249       -2.8486166854        0.0334082673
 C          0.3459429498       -1.4472179597       -0.0476721582
 C          1.5885239530       -0.7233890819       -0.0052314509
 N          2.7243713806       -1.3931979529        0.0755741613
 C          3.8646261662       -0.6876987721        0.0856444932
 C          5.1036247266       -1.3516292949        0.1674685931
 C          6.2840417095       -0.6522628336        0.1579567057
 C          7.5592778357       -1.3891986086        0.1908516609
 C          8.5552878926       -1.1344796308       -0.7482730058
 C          9.7431248489       -1.8400530706       -0.7163111322
 C          9.9552467971       -2.8055814176        0.2538186076
 C          8.9668237644       -3.0716957222        1.1862096006
 C          7.7741141259       -2.3730396067        1.1518696914
 C          8.4592991431        1.3236456339        1.1313190461
 C          9.6235757796        2.0669748456        1.1749215532
 H         10.7804764466        3.6144656881        0.2510818601
 H          9.1162937559        4.0334260344       -1.5221301466
 H          7.0390927073        2.7128638014       -1.6001342542
 H          5.0364973138        2.5147426267       -0.0492053132
 H          1.1512847226        3.3711783680       -0.0675064607
 H         -1.0806877233        4.4910138322       -0.0537935573
 H         -3.6636597743        0.7450123495        1.0943354754
 H         -5.3803704908        0.0651700797        2.7081918265
 H         -7.1407398838        1.6663223337        3.4031014975
 H         -7.1341235458        3.9616938718        2.4493468820
 H         -5.7572645993        7.0359230983       -0.5770554808
 H         -4.4581860025        7.6611814500       -2.5997768560
 H         -2.7233350492        6.1161581343       -3.4530923290
 H         -2.2477005066        4.0227378393       -2.2646370687
 H         -3.9787924294       -0.7667523713       -1.1133645159
 H         -6.1458328026        0.3046403589       -0.6623225358
 H         -7.9183474745       -0.9300513761        0.5330312277
 H         -7.5361683061       -3.3003602149        1.1773436693
 H         -5.4879236842       -7.2073425709        0.3417673783
 H         -3.9407927016       -8.4972175026       -1.1091227097
 H         -2.1729344659       -7.3123370188       -2.3647886507
 H         -1.8815418258       -4.8846865928       -2.0908058834
 H         -0.9733817836       -4.5626443769        0.0488998991
 H          1.2109961243       -3.3925165066        0.1834873025
 H          5.0998077650       -2.4304648195        0.2103008405
 H          8.3902111476       -0.3896668494       -1.5128605259
 H         10.5075502669       -1.6348913143       -1.4513699638
 H         10.8870685267       -3.3508837118        0.2813183419
 H          9.1259567310       -3.8257324272        1.9433977667
 H          7.0070285202       -2.5725394699        1.8865710736
 H          8.2693115992        0.5731364818        1.8844616179
 H         10.3449559240        1.8864526276        1.9583274517
