65
 energy: -106.637707334811 gnorm: 0.000055667861 xtb: 6.7.1 (edcfbbe)
C           -5.23900400488505        3.79996030496497       -1.71397575912995
C           -3.95521905073041        3.26669392288414       -1.80401116922239
C           -3.66494684594097        1.99878708691558       -1.33489810545723
C           -4.69910418560992        1.26193007836145       -0.77582223498451
C           -5.99734114561741        1.80628883524413       -0.65373921506827
C           -6.26558641097876        3.08245564167802       -1.13207573215296
C           -6.79704046234269        0.81550125343885        0.01366312686125
C           -8.13485171235664        0.76312536685149        0.38360849053788
C           -8.60659992017476       -0.37915437660253        0.99991475829231
C           -7.76627101867751       -1.46583958249224        1.23121005726962
C           -6.43145691632540       -1.43637835461426        0.87153694746453
C           -5.94529115724039       -0.28080154447964        0.27710657608228
N           -4.67723746585099       -0.00048430070438       -0.20585870278963
C           -3.57623705727230       -0.85565376482392       -0.15181811173200
C           -2.81607689513035       -1.09291220688299       -1.29979291913776
C           -1.73284717740265       -1.94849754526924       -1.24705243396422
C           -1.41611489200796       -2.57425773910271       -0.05475566082416
C           -2.15529167344836       -2.34729112230691        1.09106299840810
C           -3.23522611069375       -1.48591720957752        1.04666010452516
S           -0.00001116950214       -3.67266469530201        0.00002327962760
O            0.05031605983789       -4.42865683122750       -1.23367707407975
O           -0.05033956270417       -4.42864352430306        1.23373158253986
C            1.41609513583036       -2.57426029728984        0.05479278253477
C            2.15527212300896       -2.34730763631273       -1.09102848544181
C            3.23521224771081       -1.48594089699846       -1.04663364420483
C            3.57622933534299       -0.85567113639258        0.15183927735994
C            2.81606797561266       -1.09291391266242        1.29981645447088
C            1.73283170483990       -1.94849173366472        1.24708391204884
N            4.67723803300540       -0.00051142295751        0.20586967935537
C            4.69911719874013        1.26191025522315        0.77581577999060
C            3.66496973980824        1.99878117976231        1.33489153932935
C            3.95525449124099        3.26669214960591        1.80398581267234
C            5.23904410016119        3.79994552575360        1.71394103278548
C            6.26561983832221        3.08242219568007        1.13205182888214
C            5.99735911816430        1.80625551049551        0.65372343990930
C            6.79704197691510        0.81546224364492       -0.01369017250370
C            8.13484531880298        0.76308080581959       -0.38366289986373
C            8.60658297706354       -0.37921316639140       -0.99995146417643
C            7.76624975744952       -1.46590301741811       -1.23120898384949
C            6.43144033579791       -1.43643169140683       -0.87151910056600
C            5.94528658804647       -0.28084397947969       -0.27710014704578
H           -5.42677253608948        4.79274624975047       -2.09559183322261
H           -3.16729867858747        3.85796761224421       -2.24711493248302
H           -2.66163782050034        1.60544692031840       -1.39315238178701
H           -7.25624897101416        3.50236474608665       -1.04408315353606
H           -8.79018732745078        1.59801535439187        0.18605820136706
H           -9.64289796922124       -0.43988787867159        1.29805527240763
H           -8.16650598595774       -2.35388153641952        1.69819670377567
H           -5.79747845010869       -2.29417284004761        1.03665585093064
H           -3.09474813015193       -0.62320564026489       -2.23029374151276
H           -1.14563939354060       -2.16319509368605       -2.12563750347366
H           -1.87729467113693       -2.85760667963783        1.99988587071030
H           -3.80987520041695       -1.28675664014575        1.93786035385407
H            1.87727401093182       -2.85763129166265       -1.99984631536856
H            3.80986249256675       -1.28679176710443       -1.93783557854097
H            3.09474322789315       -0.62320246468993        2.23031354207453
H            1.14562315940464       -2.16317868126145        2.12567138104178
H            2.66166080786473        1.60544462789051        1.39316920130416
H            3.16734397554560        3.85797379688873        2.24709593098382
H            5.42682027148934        4.79273834322109        2.09553470444905
H            7.25627939107900        3.50233147301260        1.04402795888200
H            8.79019640582575        1.59795473928316       -0.18609639649125
H            9.64287993510623       -0.43995987314778       -1.29809209421150
H            8.16647084250677       -2.35394535454296       -1.69820642554025
H            5.79745139313327       -2.29421878947795       -1.03663606036532
