65
 energy: -106.637741271789 gnorm: 0.000073618042 xtb: 6.7.1 (edcfbbe)
C           -4.77991550553730        4.27489753241341       -1.31247679190291
C           -3.52763591453459        3.66911527520693       -1.38547942931844
C           -3.34175296470565        2.34851906884109       -1.02034757909241
C           -4.44877918835081        1.63445457598881       -0.58471673571498
C           -5.71638421450586        2.24959399360216       -0.47824968367867
C           -5.87939899595654        3.57749311963506       -0.85185529253143
C           -6.61025056339136        1.25856275435047        0.05627415915299
C           -7.96626082975255        1.26195777309350        0.35702407692157
C           -8.53860017362395        0.10370196087327        0.84504463720490
C           -7.77968623877008       -1.05177685942075        1.01702372810825
C           -6.42857096597751       -1.07883145491332        0.72448105863246
C           -5.84237671373041        0.08992516720282        0.26047981615876
N           -4.53580106685168        0.32740784185627       -0.13370675137522
C           -3.48747990374585       -0.59207794437862       -0.09262165056944
C           -2.67197453617376       -0.77356973480890       -1.21260589330097
C           -1.62534009721580       -1.67360110641481       -1.16668799187088
C           -1.40173636501159       -2.39961938395062       -0.01055371331754
C           -2.20273062288777       -2.23696659062207        1.10387388816039
C           -3.24749708864693       -1.33272623253474        1.06639424828505
S            0.00435060344774       -3.51004763142407        0.04549636236858
O            0.05185303674682       -4.28079643074479       -1.17890409026882
O           -0.03762071884803       -4.25284429840867        1.28731552477662
C            1.40346949881714       -2.38959402975449        0.07640052398056
C            1.61066819682333       -1.62139411947976        1.20811072269558
C            2.65431310981181       -0.71711271696733        1.23460442620791
C            3.48396477154136       -0.57432748925418        0.11943470591647
C            3.25933942129210       -1.35594566828999       -1.01550339374475
C            2.21728483232972       -2.26395214155544       -1.03346690017600
N            4.53202489174397        0.34609887755710        0.14154377300422
C            5.84325087489262        0.09363657379103       -0.22721616599579
C            6.43333905870791       -1.09096676470967       -0.64366131532452
C            7.78815270910690       -1.07571450768671       -0.91940155570469
C            8.54683898306596        0.08395455359874       -0.77709488092347
C            7.97035838836439        1.25877978380328       -0.33578612160787
C            6.61065107757235        1.26732757435131       -0.05231160528191
C            5.71189881423508        2.27688987332153        0.43749693605082
C            5.87276684057517        3.61618632403026        0.76902995622216
C            4.76861389194606        4.33044141437678        1.19100175847156
C            3.51419384192422        3.72951528026873        1.26713847488589
C            3.33056119795606        2.39761002657952        0.94439354093048
C            4.44175709710828        1.66758716834218        0.54761890629340
H           -4.88578677176184        5.30742651658581       -1.61106198508558
H           -2.68162393262529        4.24480149671197       -1.73141054004063
H           -2.36249737387890        1.89686916613355       -1.06336394202484
H           -6.84596940902754        4.05239515161116       -0.77659528383905
H           -8.55821205455470        2.15189995620005        0.20533805099861
H           -9.59094234582524        0.08562193706718        1.08749202595509
H           -8.25747491072537       -1.94870572506508        1.38318896295556
H           -5.85706039881497       -1.98683023560814        0.84243002365919
H           -2.87591930666306       -0.21980291904136       -2.11582536605779
H           -0.99104332292803       -1.83884632761447       -2.02308788966565
H           -1.99316138549134       -2.82346033483682        1.98488135461380
H           -3.86769800535153       -1.18113615383666        1.93611846628457
H            0.96641765449677       -1.75720299937680        2.06222826286989
H            2.84522726336225       -0.13043009907586        2.11971532706426
H            3.88955016872297       -1.23340936632336       -1.88262450900056
H            2.01946703776258       -2.88152150813222       -1.89574218913951
H            5.86188427169369       -2.00173441117796       -0.73808987326206
H            8.26909137526834       -1.98532401037901       -1.24829965581299
H            9.60212074060140        0.05635055668866       -1.00543609835625
H            8.56190882328259        2.15252860338994       -0.20661351509476
H            6.84135931842949        4.08658380839739        0.69136651903606
H            4.87253739891195        5.37223527142175        1.45619473315189
H            2.66472680544158        4.31797978836043        1.58168049748015
H            2.34990717428557        1.94925832670241        0.98968518973752
