  82
       -118.34494869
 C         -9.9702933851       -0.5782268936        1.2104961790
 C         -9.1348140580       -0.0014379343        0.0523081795
 C        -10.0595431479        0.5602817758       -1.0435794409
 C         -8.2767723702        1.1281793585        0.5813514851
 C         -8.8862762645        2.2428890818        1.1405912189
 C         -8.1586512597        3.3284415405        1.5915841969
 C         -6.7805231844        3.3235020655        1.4542011225
 C         -6.1496193987        2.2291726854        0.9062512918
 C         -6.8780335396        1.1040602766        0.4958096732
 N         -6.2095633753        0.0100246133       -0.0251499909
 C         -4.7979677111        0.0060228977       -0.0331485385
 C         -4.0828301463        0.0168680994        1.1803082719
 C         -2.7201380513       -0.0044492752        1.1849310959
 C         -1.9832653273       -0.0096727669       -0.0401958848
 C         -0.6182272486       -0.0192123227       -0.0412459551
 C          0.6178892297       -0.0265870925       -0.0328384582
 C          1.9829131298       -0.0298282386       -0.0257396596
 C          2.7301756742       -0.0271475391       -1.2445143575
 C          4.0929981106       -0.0095190846       -1.2281696715
 C          4.7977287552       -0.0215997015       -0.0087132836
 N          6.2091980871       -0.0094282132       -0.0003475939
 C          6.8935446748       -1.0974839519        0.5127231877
 C          6.1803486597       -2.2257125296        0.9408861494
 C          6.8285857309       -3.3143510197        1.4798965549
 C          8.2091736134       -3.3107605771        1.5899280525
 C          8.9210789677       -2.2221380261        1.1217437125
 C          8.2938535427       -1.1124276849        0.5721344023
 C          9.1354085639        0.0187077520        0.0201070730
 C         10.0284333102       -0.5426141404       -1.1021194156
 C         10.0036327359        0.5962189808        1.1534289112
 C          8.2800798926        1.1336317366       -0.5436153667
 C          8.8936343223        2.2549276874       -1.0850972971
 C          8.1677670455        3.3288742080       -1.5655436994
 C          6.7859403000        3.3056260399       -1.4760200111
 C          6.1511572373        2.2054256443       -0.9445054876
 C          6.8796041159        1.0915144893       -0.5046206068
 C          4.0786782758       -0.0425622733        1.2021331221
 C          2.7156335538       -0.0337723316        1.2018799301
 C         -2.7262470576       -0.0032506799       -1.2615080835
 C         -4.0894679340       -0.0087445311       -1.2501026086
 C         -6.8956114730       -1.0844864046       -0.5223308033
 C         -6.1827543393       -2.2004462339       -0.9817886689
 C         -6.8345959790       -3.2950301491       -1.5043005910
 C         -8.2180422475       -3.3104938070       -1.5651625719
 C         -8.9277561184       -2.2339582455       -1.0667069996
 C         -8.2968986345       -1.1178433793       -0.5344767555
 H        -10.5900108350        0.1916008285        1.6612674163
 H         -9.3110416661       -0.9815040775        1.9768470259
 H        -10.6182497512       -1.3767908227        0.8609927078
 H        -10.6880690541        1.3546065271       -0.6516560872
 H        -10.7038847709       -0.2176475303       -1.4427929336
 H         -9.4629778819        0.9649700312       -1.8589473981
 H         -9.9618164477        2.2722109048        1.2258702379
 H         -8.6641536755        4.1763657922        2.0272082196
 H         -6.1961177771        4.1751657094        1.7677830356
 H         -5.0791451947        2.2411479234        0.7803989393
 H         -4.6368223653        0.0158756670        2.1087513809
 H         -2.1713991552       -0.0248993681        2.1146311207
 H          2.1895236610       -0.0447680876       -2.1790033757
 H          4.6547228506       -0.0108516053       -2.1519721240
 H          5.1078197907       -2.2451220654        0.8354379086
 H          6.2557134143       -4.1686851457        1.8071922285
 H          8.7282938887       -4.1547934798        2.0170280400
 H          9.9982978237       -2.2453269718        1.1845171974
 H         10.6535464628        0.2378449274       -1.5262088386
 H          9.4088672048       -0.9562205112       -1.8955679412
 H         10.6748699592       -1.3303316468       -0.7261866848
 H          9.3667053354        0.9955772103        1.9404535516
 H         10.6399436933       -0.1719520082        1.5834187508
 H         10.6380084922        1.3977475892        0.7861961469
 H          9.9710069314        2.2991715748       -1.1319565927
 H          8.6765339803        4.1822709429       -1.9864497969
 H          6.2011873382        4.1479034561       -1.8133793759
 H          5.0771085019        2.2047824633       -0.8545809305
 H          4.6289608121       -0.0386288879        2.1327899333
 H          2.1637361904       -0.0215599788        2.1298647075
 H         -2.1823713624        0.0127082352       -2.1941636509
 H         -4.6476371695        0.0011754518       -2.1760115150
 H         -5.1071233535       -2.2065090743       -0.9140033418
 H         -6.2617013976       -4.1393951450       -1.8565205907
 H         -8.7403320384       -4.1599265352       -1.9774168504
 H        -10.0060888757       -2.2723397341       -1.0904220633
