82
 energy: -118.476480086511 gnorm: 0.000033169432 xtb: 6.7.1 (edcfbbe)
C          -10.02297660700003        0.87829083651221       -0.90917904738024
C           -9.14170728667527        0.00065630214165       -0.00026634304456
C          -10.02417375331039       -0.87619288438523        0.90824110202036
C           -8.29159538221724       -0.90405725638657       -0.87350160561999
C           -8.90876998047738       -1.79795395982990       -1.73782970120775
C           -8.18697890486905       -2.64603637183902       -2.55827197061001
C           -6.80460542521076       -2.60780470812026       -2.52107056390926
C           -6.16508217054244       -1.72966071530145       -1.67128449882242
C           -6.89289310060623       -0.87116401953244       -0.84135209759028
N           -6.22063373508187       -0.00048556928717        0.00023318591333
C           -4.79627322891521       -0.00070921433540        0.00014144710506
C           -4.10059883426708        0.83818651027231       -0.86393913115642
C           -2.71988375445572        0.83969290981620       -0.86576665604774
C           -2.01770365019042       -0.00084289743759        0.00012434343535
C           -0.60387706666196       -0.00068508960623        0.00025526191204
C            0.60387384032841       -0.00046492729723        0.00033808881107
C            2.01769845723059       -0.00014742614565        0.00030340670608
C            2.72012564976179       -0.84134352722780       -0.86473850954764
C            4.10084334586343       -0.83950973625727       -0.86282539293891
C            4.79627166997643        0.00037488215209        0.00049575941522
N            6.22063221288618        0.00054094982354        0.00056387470966
C            6.89273289615335       -0.87012343312092        0.84229506049116
C            6.16477425839870       -1.72755608985206        1.67319758652949
C            6.80413987420364       -2.60568130835267        2.52312226978770
C            8.18650528817548       -2.64496165959888        2.55949572750342
C            8.90844510149841       -1.79785965167509        1.73817302618081
C            8.29142942913514       -0.90398472572610        0.87370756527652
C            9.14170696684913       -0.00038538205261       -0.00051936236688
C           10.02281237875992       -0.87840332528473       -0.90922217552498
C           10.02433617152288        0.87693012726620        0.90738083982930
C            8.29135195405619        0.90388751756908       -0.87397463572343
C            8.90829315459185        1.79744781661407       -1.73881683256246
C            8.18628093415293        2.64513382051545       -2.55947357739501
C            6.80391766502674        2.60681344406462       -2.52198803991745
C            6.16462241063504        1.72897377174395       -1.67171509322590
C            6.89265683325378        0.87090680999635       -0.84153362883892
C            4.10042347288525        0.84000393124966        0.86371955606873
C            2.71970482648513        0.84129791838333        0.86545750181828
C           -2.71995111185710       -0.84134591363233        0.86598846789573
C           -4.10067106954640       -0.83972482145892        0.86416264611593
C           -6.89249789056477        0.87068278794792        0.84163271087478
C           -6.16431298442377        1.72857007641451        1.67186817437203
C           -6.80344798677709        2.60715919784132        2.52148807991221
C           -8.18580324172046        2.64647126560620        2.55820657253359
C           -8.90796659806919        1.79897716764135        1.73748505569815
C           -8.29118685819129        0.90463671212179        0.87333247065642
H          -10.66009931471474        0.26506856069713       -1.54053238223810
H           -9.39595411793049        1.49555616820321       -1.55067322191992
H          -10.65797848246592        1.53286262577194       -0.31850714715335
H          -10.65951883769617       -1.53017037333081        0.31728056107597
H          -10.66101672954712       -0.26240498989857        1.53932537937639
H           -9.39799626358240       -1.49404514982521        1.54999575962693
H           -9.98696008087415       -1.83890326283105       -1.77735047177120
H           -8.70058420689512       -3.32872533527783       -3.21875509706905
H           -6.22043338275066       -3.26102732988603       -3.15296098687736
H           -5.08628020219043       -1.70506480805628       -1.64701095662034
H           -4.65070585528049        1.48596674922838       -1.53089102757086
H           -2.17516131018218        1.48925162252728       -1.53500666683181
H            2.17560104162322       -1.49165162948977       -1.53341416969346
H            4.65115147032336       -1.48775579963406       -1.52916193161483
H            5.08597738685933       -1.70214082375088        1.64958924959054
H            6.21985314997637       -3.25807302410949        3.15576445876444
H            8.69998736512853       -3.32767884774983        3.22004498343901
H            9.98662740547455       -1.83960367229643        1.77707503478966
H           10.65975871350494       -0.26544370835559       -1.54100866698300
H            9.39568123740962       -1.49600831242398       -1.55028419589842
H           10.65798515373424       -1.53265952052566       -0.31838405564460
H            9.39827660956838        1.49504688204319        1.54899839607964
H           10.66136041428106        0.26346675076555        1.53859688793611
H           10.65950794574284        1.53066693721537        0.31597029164908
H            9.98647251369792        1.83843567705737       -1.77858813213369
H            8.69970738215113        3.32757893615013       -3.22034759863496
H            6.21957809308533        3.25972946918593       -3.15404058321412
H            5.08582641629448        1.70428873406464       -1.64724571318125
H            4.65038255290295        1.48848144514452        1.53011369173293
H            2.17483811568777        1.49134524278098        1.53410593303234
H           -2.17528223792981       -1.49089604202934        1.53528199483665
H           -4.65082829929802       -1.48742201887038        1.53115487170938
H           -5.08552227168070        1.70315185489281        1.64796958288874
H           -6.21898924020649        3.25990603590112        3.15360518152112
H           -8.69910606518633        3.32954404122287        3.21852775866942
H           -9.98613823923111        1.84077577351048        1.77662407017869
