85
 energy: -137.704300053837 gnorm: 0.000057368347 xtb: 6.7.1 (edcfbbe)
O           -2.61615510999808        4.20323666709690       -0.22707682763545
C           -2.47870132195211        2.93591731065978       -0.26381647033835
C           -3.61769999814451        2.07053538154763       -0.13313805777515
C           -3.53580150305988        0.71300079625087        0.25981388894586
C           -4.66219036397835       -0.05608221383311        0.38723566108444
C           -5.92971303801128        0.49402476903576        0.14936421063512
N           -7.08599462558174       -0.31475173065151        0.26562523815800
C           -8.01654799534487       -0.07076721741485        1.25954480935204
C           -7.84535953202890        0.94123222653144        2.20749637305317
C           -8.80290421535165        1.16184538546623        3.17747081629824
C           -9.94617945475343        0.37576030099679        3.23429186455415
C          -10.12297449400131       -0.65018090266441        2.32290579449553
C           -9.16709381382674       -0.88076560515963        1.34496248588526
O           -9.38171768407470       -1.92064939478309        0.49089063168190
C           -8.44939537004224       -2.16207026783482       -0.47318061496852
C           -8.68123471348651       -3.22493489231360       -1.33370019077419
C           -7.78329964115499       -3.50082260627133       -2.34947069340088
C           -6.65944126659743       -2.70213623870094       -2.51450397288029
C           -6.41870793181494       -1.64267914421854       -1.66252837847157
C           -7.29781666836110       -1.36183444896231       -0.61367456219063
C           -6.03908781281093        1.85291881392675       -0.18194896210842
C           -4.91474524762051        2.62084468231295       -0.30481885161417
C           -1.13594602589471        2.37808509605156       -0.45024759471508
C           -0.03037238641960        3.11082215305702        0.02780565834751
C            1.26593706188401        2.68293349125311       -0.14206120175243
C            1.47728458924824        1.49908749044155       -0.84263207562577
C            0.38400520865341        0.75298053572271       -1.34371468210651
C           -0.91339758852639        1.19695106917097       -1.16786243767040
C            0.94402142878797       -0.40695411677717       -1.98730601503503
C            0.38756230758299       -1.48162574311675       -2.66474828615604
C            1.23184887602733       -2.43991097220362       -3.19605522107701
C            2.61369322353824       -2.32345570671530       -3.07137137157803
C            3.19095964948056       -1.26155899670266       -2.39904280293922
C            2.34751619067374       -0.31214977185199       -1.83822228559287
N            2.65623753383421        0.84223104676050       -1.14369966982822
C            3.94580880370318        1.28838086897552       -0.83211777541353
C            4.32950301387024        2.59554304490817       -1.12685618466480
C            5.60802197667836        3.02230057179199       -0.81811663795758
C            6.51564898030260        2.16287836796611       -0.22491482334781
C            6.14013402544081        0.85227735753085        0.06227721286971
N            7.05219898097697       -0.02812865814140        0.66111809119045
C            6.82105416295706       -0.79283752242719        1.78827516936685
C            5.69832352699131       -0.85350514894330        2.60222137608056
C            5.74064687263230       -1.69377198046845        3.69900405948541
C            6.87229201889561       -2.45204551254376        3.99178056404263
C            8.00095764983883       -2.37832967310048        3.19875253851842
C            7.98224515388571       -1.54155557324236        2.09062845487417
C            8.95519407505502       -1.21058346186988        1.08597273245796
C           10.25683659881256       -1.62854195155458        0.84169459756096
C           10.92249904353976       -1.11436817301135       -0.25416231302449
C           10.30021858546829       -0.20797014853107       -1.11021509397950
C            9.00541528160727        0.22208158536803       -0.88836808528395
C            8.34079500754663       -0.27092054998152        0.22612429422944
C            4.85476546194561        0.41786233313097       -0.23876180892027
H           -2.57376669785254        0.28736327060655        0.50129765333761
H           -4.58544643378860       -1.08834380579989        0.69914822385969
H           -6.95301486880593        1.54525921727960        2.17497311027257
H           -8.65272745938265        1.95126317073131        3.89711338888237
H          -10.69248415947053        0.55366273697281        3.99180311327794
H          -10.99072728794871       -1.28943796888221        2.35171256402073
H           -9.57227431879641       -3.81470727758364       -1.19017579725020
H           -7.96595531273353       -4.32841964228526       -3.01592879174906
H           -5.96676504517940       -2.90289574383564       -3.31662683633219
H           -5.55217503598286       -1.01674670671233       -1.80120973976755
H           -7.01682048974406        2.27882666354559       -0.35718424995726
H           -4.97921384081118        3.66815984448770       -0.56266119768048
H           -0.23486958340147        4.02987874469588        0.55831854770638
H            2.08839326949518        3.24829461665622        0.26976813968914
H           -1.73851602622522        0.65489494135462       -1.60314063762067
H           -0.68332459048962       -1.56099342832765       -2.77678605814639
H            0.81780376448925       -3.28570951790401       -3.72475466465669
H            3.25042152379346       -3.07618897005741       -3.51255399827430
H            4.26422551653128       -1.17162396066283       -2.32834338201245
H            3.63000027651570        3.26040088889090       -1.60947229004684
H            5.90106954050155        4.03650328928410       -1.04381856223084
H            7.50693182632818        2.50321602792739        0.03145347873390
H            4.82197872158076       -0.25753842333965        2.39643573566839
H            4.87765394337796       -1.76044644254543        4.34541535217497
H            6.86560399762323       -3.09820817169420        4.85728179933612
H            8.88329673095793       -2.95408188638965        3.43474085260417
H           10.73405393052992       -2.34334063430685        1.49521818518358
H           11.93670371407929       -1.42398788667244       -0.45960765520462
H           10.84045825173347        0.16453011007488       -1.96834104673770
H            8.52640061562142        0.91136280913950       -1.56715897320062
H            4.56018993703660       -0.59461800063368       -0.00910584874381
