85
 energy: -137.784263413283 gnorm: 0.000036426317 xtb: 6.7.1 (edcfbbe)
O           -2.73665478228427        4.40084298434874        0.16321601246170
C           -2.58252556939139        3.19780420014222       -0.01193759874344
C           -3.73820856799492        2.26829542680754        0.06335490036100
C           -3.62579453745796        0.99243173140770        0.61552129127307
C           -4.73143356354864        0.16995038482874        0.70095399141604
C           -5.96844212574397        0.60405143229710        0.22896093164105
N           -7.09389151271337       -0.24382672045251        0.30212657254989
C           -8.19774077005122        0.10842027009380        1.08381092099145
C           -8.20828751489901        1.24466946685016        1.88400611184988
C           -9.31738841715873        1.56228640106281        2.65358222254241
C          -10.42962849816210        0.74476212724777        2.64687902298691
C          -10.42355971055812       -0.40982892653801        1.87742557912885
C           -9.31930451026092       -0.73120957431609        1.11003203276731
O           -9.37682237882692       -1.90830913605293        0.40024509370491
C           -8.27294969273918       -2.25138678528254       -0.34577243956287
C           -8.34063919738948       -3.44003426501541       -1.04889925470763
C           -7.28152776635169       -3.84127777395900       -1.85035567871959
C           -6.16505942497951       -3.03624700551925       -1.95280917249134
C           -6.09215489266513       -1.84428158704620       -1.24764945773111
C           -7.13166571149695       -1.44121263873149       -0.41800304568460
C           -6.08916522391028        1.88419796695259       -0.30831564329901
C           -4.98592659653388        2.70939215835642       -0.37643309569248
C           -1.25972927698939        2.61657441409598       -0.30082539653070
C           -0.12056406907489        3.31002838733373        0.14406371961801
C            1.15368462094550        2.84908661009561       -0.09485788000463
C            1.29342451243747        1.67231058887379       -0.82429598654347
C            0.15580441463003        0.96183047649703       -1.28588096861654
C           -1.11813687276628        1.43580342303444       -1.02669729991506
C            0.65316111412753       -0.20290381934506       -1.96634445371005
C            0.03863681993710       -1.25802574811246       -2.62863481149575
C            0.83485117022118       -2.23281493271194       -3.19692687818624
C            2.22431269593475       -2.15833308886027       -3.12130140448523
C            2.85774729063095       -1.11870496378452       -2.46634584342351
C            2.06226126988175       -0.14765696025502       -1.87562453638123
N            2.43051024432358        0.99368694794115       -1.18418498222602
C            3.74849023252019        1.39649321893850       -0.90823101649038
C            4.17506489760059        2.67672422391464       -1.24888733135192
C            5.47449513228285        3.06184198951603       -0.97024961976209
C            6.35378926008574        2.18591795150038       -0.36009889829673
C            5.93259476621603        0.90093200169188       -0.02566151544212
N            6.81388089992251        0.00606573265220        0.59511535655274
C            6.55965753738637       -0.71077684808463        1.74936757499588
C            5.44201243774067       -0.69721573688029        2.57194204419290
C            5.45740885048484       -1.50168376770688        3.69579830759879
C            6.55846618928565       -2.29695625201498        4.00675029828265
C            7.68298300886169       -2.29615646572489        3.20535682102555
C            7.69116380192699       -1.49564073819993        2.07012230040164
C            8.67022397614806       -1.23765466754443        1.05075304626460
C            9.95270480667461       -1.71650322368366        0.81496957546820
C           10.63252917830579       -1.26715574235249       -0.29982815632313
C           10.04300357594563       -0.36415019245690       -1.18239049761983
C            8.76838793340506        0.12612492153730       -0.96920028663789
C            8.09002996445767       -0.30247280303059        0.16312493541001
C            4.62698802829011        0.50795850858221       -0.30059902597420
H           -2.67720656608957        0.65629959969879        1.00622239976879
H           -4.64629326413697       -0.81281976859172        1.14058038141739
H           -7.34054612520675        1.88484348625410        1.91098668684070
H           -9.29846318754112        2.45439646763545        3.26066932943531
H          -11.29696576202250        0.98873010757475        3.23985767707281
H          -11.26811741687971       -1.08087715228340        1.86284072423714
H           -9.23632675008377       -4.03470532668763       -0.96016834997214
H           -7.34311689288560       -4.77103447578731       -2.39363079810225
H           -5.34053581141616       -3.32523261568978       -2.58629149325827
H           -5.22072323814883       -1.21745585750862       -1.34988827742969
H           -7.04886412915253        2.22305092273123       -0.66922036185006
H           -5.06845987813910        3.70436687545298       -0.78881796122076
H           -0.27508472549607        4.22320886077160        0.70011461278466
H            2.01406964240972        3.38256950528355        0.27848329957508
H           -1.98217554034298        0.91239597962090       -1.40542070393301
H           -1.03738686093040       -1.30809886329651       -2.69872392552424
H            0.37845698397586       -3.06279261796942       -3.71557879890621
H            2.82060988469569       -2.92889832951136       -3.58726454557565
H            3.93481736762573       -1.06346594483459       -2.42619035214021
H            3.49367847825681        3.35537870588784       -1.73825348297741
H            5.80444732067098        4.05613093323076       -1.23049016812483
H            7.36112315405873        2.49429069573594       -0.12677674989925
H            4.58977538059685       -0.07180518846782        2.35268343812130
H            4.59749973086670       -1.51079860968717        4.34976461582732
H            6.53100712557652       -2.91371503842301        4.89312727249488
H            8.54271781687451       -2.89976446846410        3.45518790136965
H           10.40331015238142       -2.42889687469793        1.48982190005431
H           11.63196813058398       -1.62510904791714       -0.49941104441679
H           10.59345624617243       -0.04270382296741       -2.05467165835538
H            8.31558236531617        0.81275666933750       -1.66846134883154
H            4.29668192178669       -0.48630838941758       -0.04131870589221
