  85
       -137.64423803
 O         -1.5209293843        1.2290325388       -3.5346849929
 C         -1.6377282669        0.5633860578       -2.4645174431
 C         -2.8805186303        0.5303345900       -1.7444325369
 C         -4.0404679287        1.0291762041       -2.3926056921
 C         -5.2521665577        1.0563461792       -1.7617257179
 C         -5.3659142769        0.6030110103       -0.4401231134
 N         -6.6179017122        0.6238056350        0.2236395063
 C         -7.2657419844       -0.5571496190        0.5349436528
 C         -6.7450704229       -1.8014818154        0.1782456718
 C         -7.4185298851       -2.9624382751        0.5046617077
 C         -8.6250761775       -2.9091294922        1.1867862091
 C         -9.1674258427       -1.6837934863        1.5340815955
 C         -8.5000295702       -0.5136147670        1.2103750084
 O         -9.0910159968        0.6658196380        1.5592006341
 C         -8.4406953562        1.8241468429        1.2464237961
 C         -9.0428555852        3.0154695917        1.6171663875
 C         -8.4200443518        4.2208153583        1.3425125026
 C         -7.1880706239        4.2328762565        0.7053790989
 C         -6.5794964132        3.0506240353        0.3314874392
 C         -7.1988145032        1.8259872497        0.5834759254
 C         -4.2241765534        0.1579967929        0.2373610101
 C         -3.0075820243        0.1347975458       -0.3927730664
 C         -0.4704939950       -0.1680491272       -1.9561046519
 C          0.8106139186        0.3421258383       -2.2471414293
 C          1.9585927587       -0.2720475786       -1.8060265915
 C          1.8335308497       -1.4385824280       -1.0593477970
 C          0.5609747333       -2.0121420491       -0.8300044819
 C         -0.5863277195       -1.3920895904       -1.2887886977
 C          0.7926718055       -3.2413517168       -0.1181652738
 C         -0.0492696689       -4.2143811870        0.3980464720
 C          0.5084473546       -5.2812391393        1.0781885875
 C          1.8854613629       -5.3711841619        1.2602528067
 C          2.7445519866       -4.4122704089        0.7560065609
 C          2.1931753606       -3.3540554556        0.0472284820
 N          2.8102556215       -2.2597952669       -0.5271137209
 C          4.1840898234       -2.0114890696       -0.5435062728
 C          5.0765327470       -3.0133884246       -0.9234418045
 C          6.4359055382       -2.7634130454       -0.9151004435
 C          6.9231171007       -1.5236506148       -0.5420366612
 C          6.0357245680       -0.5175400161       -0.1647739845
 N          6.5213705691        0.7337433603        0.2335802678
 C          6.0954899520        1.9591605193       -0.2387801158
 C          5.1715851927        2.2514835750       -1.2308272030
 C          4.9462705617        3.5800960627       -1.5351433822
 C          5.6304288445        4.6007702121       -0.8791255964
 C          6.5718851026        4.3159550064        0.0901511124
 C          6.8128523962        2.9876415574        0.4139930878
 C          7.7097805015        2.3404613011        1.3305414648
 C          8.6400046410        2.8096146276        2.2478885214
 C          9.3373240501        1.8933565918        3.0100824016
 C          9.1056659301        0.5262786321        2.8767215703
 C          8.1850972924        0.0353908912        1.9706006379
 C          7.4990327771        0.9499940105        1.1845649454
 C          4.6683752171       -0.7627891928       -0.1649227802
 H         -3.9311520178        1.3706118975       -3.4101231211
 H         -6.1345915581        1.4116553566       -2.2744636874
 H         -5.8127057823       -1.8408984639       -0.3618064403
 H         -6.9988966610       -3.9147057495        0.2204044498
 H         -9.1476329169       -3.8172799057        1.4415717399
 H        -10.1095329401       -1.6090819249        2.0528538279
 H         -9.9942482921        2.9727541638        2.1225642064
 H         -8.8922436403        5.1455767001        1.6330834569
 H         -6.6929383852        5.1690775279        0.5007220350
 H         -5.6165419231        3.0594654638       -0.1533144436
 H         -4.3113572544       -0.1418746096        1.2726704421
 H         -2.1302247147       -0.1505292906        0.1655131571
 H          0.8674420972        1.2512322774       -2.8247614151
 H          2.9266025404        0.1370525707       -2.0463704012
 H         -1.5472648345       -1.8646634029       -1.1642547289
 H         -1.1186426370       -4.1331998603        0.2731833752
 H         -0.1300134305       -6.0510570860        1.4848894339
 H          2.2927443527       -6.2057668180        1.8112376243
 H          3.8087026229       -4.4824820237        0.9225752367
 H          4.6971642459       -3.9716718378       -1.2424760068
 H          7.1235630765       -3.5388249518       -1.2173875572
 H          7.9829206224       -1.3218877987       -0.5576732569
 H          4.6546201661        1.4679050350       -1.7614276744
 H          4.2271247446        3.8309340376       -2.3006259940
 H          5.4258024668        5.6273277419       -1.1435843806
 H          7.1153197750        5.1064348337        0.5850598224
 H          8.8073413738        3.8697889470        2.3628096060
 H         10.0664828510        2.2372833393        3.7281041923
 H          9.6542932811       -0.1657807708        3.4980374946
 H          7.9991985510       -1.0248776226        1.8877165676
 H          3.9833086722        0.0050324452        0.1588103327
