  85
       -137.72702950
 O         -2.5873088884        4.3611136039        0.1785129924
 C         -2.4289625658        3.1673883456       -0.0124085929
 C         -3.5717700480        2.2201992622        0.0610308024
 C         -3.4281884056        0.9281618286        0.5656827270
 C         -4.5181360790        0.0861173998        0.6450683745
 C         -5.7724585785        0.5165548129        0.2163774523
 N         -6.8769620031       -0.3537929409        0.2836974920
 C         -7.9748040670       -0.0522879980        1.0951542841
 C         -8.0180939608        1.0826277128        1.8949224480
 C         -9.1201183255        1.3465869661        2.6941869182
 C        -10.1906226467        0.4761074895        2.7169267534
 C        -10.1492208276       -0.6776607889        1.9482535499
 C         -9.0523713796       -0.9461053342        1.1507835299
 O         -9.0707865473       -2.1239291569        0.4455858564
 C         -7.9857479513       -2.4061815963       -0.3453037524
 C         -8.0236445034       -3.5876052395       -1.0623270423
 C         -6.9790094938       -3.9271577461       -1.9092934258
 C         -5.9080856715       -3.0677636171       -2.0458407904
 C         -5.8642301302       -1.8828088684       -1.3269065631
 C         -6.8868523682       -1.5429838975       -0.4500544255
 C         -5.9239585596        1.8128779729       -0.2717599067
 C         -4.8348154109        2.6564073367       -0.3357771947
 C         -1.1032098037        2.5906556488       -0.3204995804
 C          0.0350566505        3.2626429394        0.1533628421
 C          1.3084317124        2.8003663917       -0.0903852657
 C          1.4442693330        1.6455832652       -0.8527552078
 C          0.3072639649        0.9587981306       -1.3463349174
 C         -0.9653912855        1.4347312068       -1.0831521033
 C          0.8017260157       -0.1905661856       -2.0532288879
 C          0.1865368456       -1.2189108640       -2.7547994767
 C          0.9807467821       -2.1842251928       -3.3409057821
 C          2.3692831507       -2.1276138207       -3.2430774105
 C          3.0038405461       -1.1151945603       -2.5485240818
 C          2.2099108372       -0.1528984911       -1.9425507743
 N          2.5799658606        0.9650406529       -1.2174747490
 C          3.8960760977        1.3475652626       -0.9148925968
 C          4.3416654786        2.6284886083       -1.2269193109
 C          5.6416726593        2.9924358201       -0.9250521598
 C          6.5003492304        2.0970066057       -0.3147900522
 C          6.0589600746        0.8123972561       -0.0047203068
 N          6.9145852133       -0.0981023765        0.6226144370
 C          6.6201561711       -0.8344464299        1.7554806656
 C          5.4769417185       -0.8307175737        2.5412504781
 C          5.4551919526       -1.6516497105        3.6529249604
 C          6.5440459899       -2.4533788971        3.9867637513
 C          7.6937297340       -2.4426778668        3.2225188156
 C          7.7391262081       -1.6259201061        2.1004661422
 C          8.7519706992       -1.3534162272        1.1187671265
 C         10.0394094859       -1.8331574433        0.9175341428
 C         10.7562482550       -1.3684044916       -0.1669537040
 C         10.1991394072       -0.4492892079       -1.0529756389
 C          8.9200698275        0.0424288297       -0.8734921400
 C          8.2045619570       -0.4018965658        0.2287285250
 C          4.7541722442        0.4391149083       -0.3089431338
 H         -2.4660533610        0.5943994704        0.9241327520
 H         -4.4097115263       -0.9109335794        1.0460651111
 H         -7.1808291031        1.7625299325        1.9015361391
 H         -9.1276765559        2.2386525852        3.3011620126
 H        -11.0511281957        0.6782772217        3.3345948075
 H        -10.9589831747       -1.3894879074        1.9579999256
 H         -8.8846846430       -4.2262098015       -0.9476390404
 H         -7.0162733830       -4.8520418763       -2.4625808510
 H         -5.0968985483       -3.3076969451       -2.7159081771
 H         -5.0298669625       -1.2113312541       -1.4558525164
 H         -6.8964178111        2.1466199991       -0.6020232640
 H         -4.9401709128        3.6633933377       -0.7103643624
 H         -0.1174308333        4.1595030326        0.7343281051
 H          2.1714215154        3.3146009151        0.3043126809
 H         -1.8298616218        0.9284577882       -1.4836689399
 H         -0.8889066721       -1.2544936161       -2.8419566887
 H          0.5236751738       -2.9926694627       -3.8910979712
 H          2.9640233334       -2.8904748688       -3.7226215679
 H          4.0809098258       -1.0715900320       -2.4901461617
 H          3.6741485331        3.3223589481       -1.7143836432
 H          5.9877245583        3.9861604044       -1.1655605842
 H          7.5066390857        2.3903133846       -0.0585031552
 H          4.6340691977       -0.1984016028        2.3052417574
 H          4.5750908504       -1.6677635639        4.2785614606
 H          6.4869827453       -3.0826746708        4.8621626387
 H          8.5445669106       -3.0504977349        3.4903535163
 H         10.4643465399       -2.5577871310        1.5953685302
 H         11.7598959649       -1.7264554042       -0.3402421672
 H         10.7776752693       -0.1158323545       -1.9016119423
 H          8.4913508120        0.7405869774       -1.5768403061
 H          4.4083492694       -0.5558524340       -0.0745115741
