66
 energy: -98.929303070555 gnorm: 0.000031482569 xtb: 6.7.1 (edcfbbe)
C           -3.43843536077938       -4.00352961447487       -0.19936423537252
C           -3.47742751821879       -3.19725720947698        0.92519430260064
C           -2.72392566671668       -2.03944637285444        0.97562487899980
C           -1.91797437751577       -1.67632518190742       -0.09750560524232
C           -1.12412071677928       -0.42770030856229       -0.04634897783096
C           -1.79441445082652        0.79131479099878        0.04084329674445
C           -3.26824939912733        0.80498450640971        0.14054480732149
C           -4.05595091815034        0.28473330895951       -0.88070794117826
C           -5.43367479405361        0.27861036036964       -0.76698399312039
C           -6.04168704194823        0.78867504861930        0.36770205791984
C           -5.26510790479247        1.31300363229176        1.38713271506988
C           -3.88709788527088        1.32423985941675        1.27385693716010
C           -1.06916125373066        1.99094181444663       -0.01457309650691
C           -1.72558222014251        3.25605912480465       -0.08063127872024
C           -1.02815040132849        4.41058009326800       -0.17299409187104
C            0.39515463105987        4.40681535050909       -0.20732767797855
C            1.13589357884842        5.58425387363854       -0.32405155881702
C            2.51720720302643        5.54997525958489       -0.36913200304259
C            3.18969029409600        4.34495578438034       -0.29229658434028
C            2.48648384994253        3.14469635936534       -0.17522087545753
C            3.14388762654973        1.89466245267666       -0.03250139255168
C            2.46641373970261        0.71907315739313        0.07935045050866
C            3.26090729424468       -0.47945601313348        0.41042321783706
C            4.32675011824191       -0.87095243968774       -0.39240123380821
C            5.11185433108127       -1.95202488740375       -0.03799325305944
C            4.85549270893406       -2.64245066458520        1.13391448114101
C            3.81409588091400       -2.24147466852449        1.95340105048828
C            3.02260612019742       -1.16691368475957        1.59624704765370
C            1.02970024706926        0.70084223235020       -0.01894717611827
C            0.27262793209208       -0.48188065484387       -0.09753456045129
C            0.89286151164455       -1.80460174565502       -0.31251625462831
C            0.69005793333755       -2.85382477228065        0.57754480163627
C            1.22856239665269       -4.10036287610069        0.32382939459461
C            1.96535772211290       -4.31978896850490       -0.82734494716949
C            2.16141227562042       -3.28464848396883       -1.72487945236600
C            1.62820418700525       -2.03551232540329       -1.47054921457170
C            0.34754080541934        1.94822940866491       -0.05034178380391
C            1.07183440998641        3.16423859993823       -0.13838303938100
C           -1.88497392757867       -2.49084145032844       -1.22387187224999
C           -2.64136972322609       -3.64658748467861       -1.27361045274110
H           -4.02849388823488       -4.90736066818696       -0.23895856505996
H           -4.09797238316074       -3.47052027254819        1.76628496310264
H           -2.75257407351860       -1.41306189310777        1.85586083893453
H           -3.58341683557531       -0.10997634444900       -1.76817356479678
H           -6.03544529810777       -0.12751341931059       -1.56685601314968
H           -7.11800357053537        0.77889302068462        0.45710126838988
H           -5.73443882967927        1.71367979250621        2.27408364013645
H           -3.27884411179107        1.72737842344878        2.07179751639139
H           -2.80542229004273        3.27004704499393       -0.07299592086992
H           -1.53944956610050        5.36098029702893       -0.23196254126056
H            0.61385050898342        6.52865954177053       -0.38272336992893
H            3.07439442968132        6.47114872532659       -0.46125865798909
H            4.26969988369397        4.32092943623347       -0.31912071325375
H            4.22300812532057        1.89353262321440        0.04028512651272
H            4.52553961217496       -0.33350425504161       -1.30879444054589
H            5.92848900077235       -2.25561564708239       -0.67693345037430
H            5.46901147328670       -3.48692527033660        1.41111829402158
H            3.61857434921297       -2.76851436079152        2.87588743067338
H            2.21598041550402       -0.84753920896369        2.24061007199410
H            0.11909090527846       -2.68623091567818        1.47899008395173
H            1.07027334138508       -4.90539980014147        1.02642358244291
H            2.38367192585798       -5.29549476018396       -1.02583131239240
H            2.73054543863641       -3.45158092860923       -2.62787857651603
H            1.77317312681197       -1.22837004306532       -2.17515546041930
H           -1.26798122593642       -2.21099468478953       -2.06568516423790
H           -2.60896251778333       -4.27083719444902       -2.15471961628049
