66
 energy: -98.860615597211 gnorm: 0.000070940125 xtb: 6.7.1 (edcfbbe)
C           -3.46518488665542       -4.03661509846584       -0.05066000823025
C           -3.47561033152992       -3.20224478399132        1.05394399960664
C           -2.71929440176130       -2.04498047751723        1.05672273046528
C           -1.93975114896060       -1.71067918877168       -0.04500265388404
C           -1.14273151359725       -0.46194810611042       -0.04177123880534
C           -1.80879334930995        0.75563390183929        0.03228780214018
C           -3.26802266284105        0.80394071851644        0.18352675199224
C           -4.11239436030085        0.16575907593687       -0.72375366454938
C           -5.48285678806714        0.20440416283478       -0.55417232517410
C           -6.03541408056192        0.87537236475965        0.52429682583471
C           -5.20642880749879        1.51760231210894        1.42966166989864
C           -3.83582768214646        1.48799065473338        1.25897799934855
C           -1.06467925062977        1.98516969835759       -0.09894755361368
C           -1.70682309301410        3.21458273053942       -0.23583012223932
C           -0.98618659550017        4.39421602822730       -0.36739320679118
C            0.40819511046705        4.38238971223213       -0.35505136894936
C            1.17514757691460        5.57931125655130       -0.47401358073444
C            2.55518635619012        5.53685779760710       -0.47264731468534
C            3.22413456070093        4.33748356517998       -0.34423492097779
C            2.50197684304505        3.11309726921490       -0.21155395048326
C            3.14187303331279        1.89737465584977       -0.02357093472204
C            2.43024915473231        0.68903887098816        0.10431177632243
C            3.21612301333667       -0.49048609124075        0.48833512360967
C            4.36412277373147       -0.84417760216626       -0.21711806263662
C            5.13023080628656       -1.92226495951422        0.18220122422167
C            4.77655042683600       -2.64944460747792        1.30591566355513
C            3.65306453661747       -2.28805116347575        2.03125901849562
C            2.87891302623228       -1.21864453054439        1.62768562539033
C            1.03443341248305        0.68709830795979       -0.04466671588837
C            0.25233691732325       -0.52444407319061       -0.13154181108767
C            0.89385821466818       -1.81042819857524       -0.41792437100985
C            0.67061276061385       -2.93801400992833        0.37181770927886
C            1.25657562627014       -4.14636781955104        0.05186735052730
C            2.06381810861093       -4.25766148653366       -1.06759252320581
C            2.28435773914557       -3.14693832109377       -1.86566571457829
C            1.70851988982833       -1.93480874302302       -1.54387722065973
C            0.35326236651761        1.93459296953601       -0.12883579927700
C            1.08244432899003        3.14242873232267       -0.22937295013154
C           -1.93508892392002       -2.55333396034721       -1.15129862483232
C           -2.69429331127692       -3.70845548757614       -1.15300964147511
H           -4.05744768466853       -4.93987348698564       -0.05305418723986
H           -4.07601938202971       -3.45280429551928        1.91644860112688
H           -2.72588242751352       -1.39535551973908        1.92051470459836
H           -3.68833495547572       -0.34730812796289       -1.57388999613547
H           -6.12396768460448       -0.29107582066637       -1.26866259399790
H           -7.10682544571582        0.90012962929759        0.65769506695954
H           -5.63070331304347        2.04263000850062        2.27343864296153
H           -3.18942590246995        1.97892881495702        1.97312966923029
H           -2.78549554272326        3.25116958362755       -0.25181397228105
H           -1.50891501887999        5.33279657906530       -0.48040955553321
H            0.65254539112594        6.51967706826770       -0.56356672581223
H            3.11760271417391        6.45492991826235       -0.56801546128023
H            4.30305550441116        4.30370830138745       -0.33517324818222
H            4.21878993439975        1.87239776405719        0.06192312758633
H            4.63747470548193       -0.28536139909548       -1.10090133291773
H            6.00819767916454       -2.19624325764685       -0.38484145150919
H            5.37687067886559       -3.49079833796355        1.61887459407332
H            3.38106450777506       -2.84292882375961        2.91731707803336
H            2.00945969014258       -0.92926532731677        2.20049621022196
H            0.05520536518702       -2.85695330331687        1.25532185649437
H            1.08283146451623       -5.00727786084452        0.68086608397903
H            2.51890639868628       -5.20448043797675       -1.31765693554422
H            2.90719220664545       -3.22813116135296       -2.74475976659398
H            1.87247425957535       -1.07164834937467       -2.17383987799351
H           -1.33903958730415       -2.29540187764311       -2.01504886362898
H           -2.68468256817855       -4.35468764017898       -2.01867654377677
