  66
        -98.92929790
 C         -3.4354171121       -4.0055662917       -0.2041258528
 C         -3.4730940770       -3.2036538262        0.9235918846
 C         -2.7210019404       -2.0448991963        0.9770974078
 C         -1.9171524480       -1.6772067965       -0.0959432915
 C         -1.1237925548       -0.4283231699       -0.0432528421
 C         -1.7943565494        0.7905253693        0.0431255135
 C         -3.2682117790        0.8045094126        0.1426603431
 C         -4.0557003121        0.2845776179       -0.8789109672
 C         -5.4335573997        0.2810925180       -0.7667416548
 C         -6.0418912712        0.7933567010        0.3667601830
 C         -5.2654837154        1.3169032264        1.3867184496
 C         -3.8873219386        1.3254817500        1.2750193767
 C         -1.0693868717        1.9902745302       -0.0141417572
 C         -1.7261021299        3.2551447114       -0.0820048319
 C         -1.0288729404        4.4097413919       -0.1750057862
 C          0.3944763823        4.4063836129       -0.2080149157
 C          1.1349769531        5.5840833406       -0.3231514575
 C          2.5163245030        5.5501463170       -0.3672921757
 C          3.1890434675        4.3451594131       -0.2920847898
 C          2.4861257500        3.1446290253       -0.1763442833
 C          3.1438928211        1.8945717811       -0.0348922216
 C          2.4664746961        0.7190898277        0.0780782723
 C          3.2605267770       -0.4796290258        0.4098467506
 C          4.3218203619       -0.8770754743       -0.3959135010
 C          5.1059390074       -1.9583886331       -0.0399711794
 C          4.8537262680       -2.6423601813        1.1365948486
 C          3.8170456603       -2.2352237440        1.9589462743
 C          3.0259476344       -1.1610132132        1.5999177630
 C          1.0297456518        0.7007481398       -0.0184733325
 C          0.2729310832       -0.4822183756       -0.0951438039
 C          0.8934362648       -1.8047928656       -0.3103197468
 C          0.6937083643       -2.8536985712        0.5807255992
 C          1.2318556586       -4.1001511370        0.3257023185
 C          1.9650275504       -4.3197724371       -0.8276816727
 C          2.1577958224       -3.2849598429       -1.7263049401
 C          1.6252190162       -2.0358836235       -1.4705541909
 C          0.3473285533        1.9479188700       -0.0504010765
 C          1.0714693653        3.1639838558       -0.1390484504
 C         -1.8850658502       -2.4876242653       -1.2254075230
 C         -2.6403994892       -3.6439469898       -1.2783748120
 H         -4.0246317750       -4.9099292310       -0.2461196127
 H         -4.0917398982       -3.4810021703        1.7647145970
 H         -2.7488801757       -1.4217959808        1.8597787552
 H         -3.5828855619       -0.1114879994       -1.7656163121
 H         -6.0351766867       -0.1241049799       -1.5671849461
 H         -7.1183336404        0.7859970059        0.4547588194
 H         -5.7350719829        1.7187688238        2.2729772299
 H         -3.2792008963        1.7271983884        2.0737585270
 H         -2.8059452692        3.2688357577       -0.0753352057
 H         -1.5403948502        5.3599327017       -0.2354721977
 H          0.6127369176        6.5284082143       -0.3812154933
 H          3.0733454741        6.4715718655       -0.4576276321
 H          4.2690517137        4.3213860489       -0.3188062573
 H          4.2231195424        1.8933488211        0.0362873026
 H          4.5175148092       -0.3445291391       -1.3158470392
 H          5.9187562733       -2.2671101203       -0.6812973676
 H          5.4669732791       -3.4865406571        1.4152855485
 H          3.6252200005       -2.7568010652        2.8853272503
 H          2.2227445645       -0.8368090874        2.2461748150
 H          0.1255866465       -2.6859517108        1.4839818179
 H          1.0757508406       -4.9051609926        1.0288206728
 H          2.3825803156       -5.2955737362       -1.0273994358
 H          2.7236904403       -3.4521372946       -2.6313092431
 H          1.7675859084       -1.2288820284       -2.1758236544
 H         -1.2697331840       -2.2037340432       -2.0670788236
 H         -2.6090460538       -4.2647309598       -2.1620514844
