66
 energy: -98.925594421285 gnorm: 0.000033076276 xtb: 6.7.1 (edcfbbe)
C           -2.91097553634606       -4.16149698191317       -0.00024716784064
C           -2.60450481789317       -3.53884811145254        1.19719891453752
C           -1.99189857355101       -2.29949281643494        1.19770558315179
C           -1.67826005208405       -1.67156542594615       -0.00014035262657
C           -1.03356426868245       -0.33600575486565       -0.00009799774780
C           -1.83930234726890        0.79560822588817        0.00007000971210
C           -3.30909099944011        0.61619262821495        0.00027954406432
C           -4.00361928332154        0.51182460256944       -1.19852214460224
C           -5.37098212545515        0.30507404610947       -1.19725698839389
C           -6.05680980391272        0.20016565207932        0.00075682036608
C           -5.37091680968815        0.30740282429372        1.19852812572670
C           -4.00355904127466        0.51419163492893        1.19932063442088
C           -1.25388617295187        2.06674330410049        0.00002929442980
C           -2.05493137359599        3.24712782530157        0.00004976859264
C           -1.49502354318653        4.47717548667766       -0.00006110543509
C           -0.07951561546077        4.63643608181808       -0.00020665880114
C            0.52123680781481        5.89621312801879       -0.00034222870463
C            1.89780357978732        6.02481773256323       -0.00049472771877
C            2.70498768208682        4.90301127589431       -0.00051810983275
C            2.14452455355911        3.62474244532887       -0.00038721664769
C            2.94255754961334        2.44973633831462       -0.00033131953945
C            2.40678354333318        1.20038531180668       -0.00018650550157
C            3.36679735435773        0.07103744261990        0.00006862033975
C            3.86642121510997       -0.42426334639239       -1.19772522443601
C            4.82139296556798       -1.42399907880866       -1.19676762024024
C            5.29709417526587       -1.92932783448220        0.00068790198234
C            4.82058342356078       -1.42403752134633        1.19783854788282
C            3.86558811282129       -0.42432698509663        1.19818469028185
C            0.98056705608266        1.01962714048878       -0.00016415494882
C            0.35854663482431       -0.23869245825954       -0.00018640510423
C            1.07295178523713       -1.53718533534423       -0.00025594874553
C            1.34957709803468       -2.18391607063342        1.19727998419378
C            1.91782089454520       -3.44360907421058        1.19660582236813
C            2.20416716013346       -4.07600723197304       -0.00037696618866
C            1.91846548915747       -3.44320640750603       -1.19730019980404
C            1.35024756229960       -2.18349958326006       -1.19785879559897
C            0.15924730543383        2.18318535057222       -0.00012323880332
C            0.73725408577483        3.47794938099877       -0.00023222546265
C           -1.99066023247397       -2.30000628395459       -1.19804251251584
C           -2.60329519730043       -3.53934554856274       -1.19764201560583
H           -3.38998202478507       -5.12962008879773       -0.00028875382387
H           -2.84453413656740       -4.02022215154028        2.13412496253115
H           -1.75373397620091       -1.81191721446722        2.13202531443531
H           -3.46595581898662        0.59569076054815       -2.13210993512696
H           -5.90307935742885        0.22447502580931       -2.13402948758698
H           -7.12438112659292        0.03615268362552        0.00094451042446
H           -5.90296578991199        0.22860582693260        2.13548182967151
H           -3.46584284876229        0.59988273350106        2.13271601378869
H           -3.12885179627587        3.12745826624764        0.00013620607735
H           -2.11033961968225        5.36571837723101       -0.00005463826261
H           -0.10602757413746        6.77625558371529       -0.00032052394374
H            2.34502581177929        7.00844409458578       -0.00059414839419
H            3.78073437868171        5.00526780159771       -0.00062463889877
H            4.01832898132686        2.56401895396711       -0.00036558036479
H            3.49933252990936       -0.02260116067840       -2.13145841874502
H            5.19900007478497       -1.80711863267374       -2.13362846159224
H            6.04282617323633       -2.71057316776462        0.00092738284282
H            5.19757680874221       -1.80717018298876        2.13494093291698
H            3.49787638551662       -0.02268687150351        2.13168249101165
H            1.12035935868205       -1.69186917349589        2.13160663142168
H            2.13334390153645       -3.93593723697307        2.13369736999431
H            2.64533756305233       -5.06179866400559       -0.00042399282038
H            2.13449462884905       -3.93521919370598       -2.13444095542210
H            1.12157560895774       -1.69112037896345       -2.13214462976192
H           -1.75153427309256       -1.81283067429489       -2.13232467868989
H           -2.84240510310943       -4.02109532405275       -2.13461023289394
