  56
        -95.50878728
 N         -4.1664533292        7.2432386487       -0.8789470047
 C         -3.6488354878        6.2269235499       -0.7606234903
 C         -3.0050836020        4.9776550765       -0.6091642183
 C         -3.3880382459        3.8937910771       -1.3999660465
 C         -2.7566118895        2.6767223849       -1.2473040094
 C         -1.7379474783        2.5206519903       -0.3090466357
 C         -1.0516949895        1.2295663457       -0.1422394049
 C          0.3332205334        1.1878207441       -0.1332800248
 C          1.0129330234       -0.0216540360       -0.0027413210
 N          2.4129905801       -0.0473266955       -0.0012952532
 C          3.1403730702        0.6913040629        0.9434456022
 C          2.5260419478        1.4140608339        1.9583752499
 C          3.2765174907        2.1319750682        2.8767111303
 C          4.6550494116        2.1280044818        2.8056924288
 C          5.2851850716        1.3759823445        1.8269471944
 C          4.5400073258        0.6551992799        0.9109303690
 O          5.2370022943       -0.1000086889        0.0045935528
 C          4.5160515025       -0.8285711629       -0.9048448918
 C          5.2375073681       -1.5764911169       -1.8180549964
 C          4.5836402431       -2.3041853733       -2.7996239829
 C          3.2062160279       -2.2566415073       -2.8762927456
 C          2.4793073993       -1.5114725856       -1.9607059489
 C          3.1161908460       -0.8124576582       -0.9430865462
 C          0.2873885252       -1.2042983790        0.1276037815
 C         -1.0979371413       -1.1909407159        0.1421121483
 C         -1.8353138810       -2.4539108689        0.3086636625
 C         -1.5116576773       -3.5522357569       -0.4875448205
 C         -2.1914082856       -4.7442440824       -0.3500660203
 C         -3.2055435473       -4.8553012955        0.6023889750
 C         -3.9036833596       -6.0757152019        0.7485614754
 N         -4.4653021095       -7.0683096643        0.8673685890
 C         -3.5255567820       -3.7656394780        1.4132183320
 C         -2.8434437642       -2.5758817076        1.2632018025
 C         -1.7757591458        0.0330248484        0.0025561227
 C         -3.1874320843        0.0592462677        0.0075481661
 N         -4.3354443573        0.0766627105        0.0172066449
 C         -1.3529060715        3.6125042503        0.4685835790
 C         -1.9808355096        4.8321265625        0.3276555785
 H         -4.1762002008        4.0134744074       -2.1279986764
 H         -3.0449670441        1.8445299080       -1.8715121031
 H          0.8943599920        2.1007833321       -0.2660125941
 H          1.4503748679        1.4058646414        2.0459226081
 H          2.7703490762        2.6883977902        3.6503082428
 H          5.2433225259        2.6902021617        3.5130643880
 H          6.3599665109        1.3265806606        1.7588568321
 H          6.3130965970       -1.5673315059       -1.7455792472
 H          5.1534041857       -2.8877393513       -3.5048447859
 H          2.6828788911       -2.7935407036       -3.6522413124
 H          1.4050321500       -1.4630893933       -2.0522397424
 H          0.8122978966       -2.1391129298        0.2566323136
 H         -0.7335961129       -3.4618784509       -1.2319534778
 H         -1.9468470566       -5.5914684946       -0.9733234552
 H         -4.3058122738       -3.8591090731        2.1533904928
 H         -3.0849778859       -1.7384680470        1.9001303103
 H         -0.5679521595        3.4960498988        1.2018757431
 H         -1.6878048007        5.6748014474        0.9361992997
  56
        -95.50870529
 N         -4.2290434866        7.2108545336       -0.8602065603
 C         -3.6986103003        6.2019703183       -0.7356012067
 C         -3.0383537659        4.9617023176       -0.5816321539
 C         -2.0240510641        4.5979543575       -1.4684905984
 C         -1.3797167317        3.3888931937       -1.3106483323
 C         -1.7394634126        2.5219448360       -0.2796973265
 C         -1.0416987412        1.2362253713       -0.1221632929
 C          0.3433561221        1.1942117097       -0.1437105639
 C          1.0233639997       -0.0132152048        0.0018457442
 N          2.4237948824       -0.0437809146       -0.0190957933
 C          3.1726699132        0.6979863202        0.9062989075
 C          2.5810869145        1.4392323460        1.9211819912
 C          3.3535607694        2.1574097472        2.8211075772
 C          4.7306785108        2.1354745585        2.7311434545
 C          5.3379788895        1.3670698913        1.7504603001
 C          4.5713578201        0.6464396347        0.8525183313
 O          5.2465795277       -0.1233501742       -0.0583018296
 C          4.5045116877       -0.8496890556       -0.9522427780
 C          5.2041979327       -1.6080613672       -1.8738485857
 C          4.5277128157       -2.3363051362       -2.8394213435
 C          3.1494227599       -2.2799871369       -2.8910265257
 C          2.4443767546       -1.5236549751       -1.9676294138
 C          3.1044894690       -0.8220103950       -0.9665546896
 C          0.2998567419       -1.1930667664        0.1661623740
 C         -1.0854860737       -1.1825632620        0.1839225593
 C         -1.8265230540       -2.4409473540        0.3594540511
 C         -1.4815012585       -3.5609478793       -0.3963639317
 C         -2.1677798648       -4.7477804845       -0.2474800503
 C         -3.2108144397       -4.8318406414        0.6758251674
 C         -3.9150808604       -6.0469919345        0.8354020730
 N         -4.4826603935       -7.0347255497        0.9657817383
 C         -3.5547091883       -3.7196493279        1.4450837737
 C         -2.8658135480       -2.5356784347        1.2834518148
 C         -1.7632488748        0.0403061248        0.0351655762
 C         -3.1716577375        0.0565786647       -0.0653262638
 N         -4.3129745324        0.0679893100       -0.1872761656
 C         -2.7510475482        2.8947502192        0.6037721415
 C         -3.3973300059        4.1047663636        0.4593189122
 H         -1.7515379972        5.2648875030       -2.2728676548
 H         -0.6038459496        3.0992176190       -2.0043050406
 H          0.9027518884        2.1088359510       -0.2725225520
 H          1.5068507267        1.4496134771        2.0225860116
 H          2.8643353632        2.7286884308        3.5946191547
 H          5.3360055174        2.6972809782        3.4242551553
 H          6.4110327256        1.3056157925        1.6670821264
 H          6.2808462498       -1.6063493668       -1.8201227057
 H          5.0801476645       -2.9279494987       -3.5516197320
 H          2.6084876862       -2.8183373890       -3.6537931232
 H          1.3689003753       -1.4693782164       -2.0393374662
 H          0.8282839341       -2.1239549159        0.3085977738
 H         -0.6823876242       -3.4917995121       -1.1201394345
 H         -1.9059384166       -5.6120186007       -0.8397072652
 H         -4.3579155135       -3.7923819917        2.1628560781
 H         -3.1251702463       -1.6810207105        1.8900257597
 H         -3.0226119216        2.2389316879        1.4173822501
 H         -4.1789165518        4.3936712202        1.1457939412
  56
        -95.50862030
 N         -4.1621441540        7.2268729664       -1.0402997379
 C         -3.6470340395        6.2145579405       -0.8834909913
 C         -3.0059953557        4.9691073623       -0.6932649035
 C         -3.3591357445        3.8747270566       -1.4835692661
 C         -2.7290205506        2.6621210561       -1.2952164379
 C         -1.7407008945        2.5214406664       -0.3224842003
 C         -1.0519616507        1.2347663768       -0.1324589213
 C          0.3331077614        1.1958183089       -0.1079372171
 C          1.0104276758       -0.0155678445        0.0084180835
 N          2.4124085999       -0.0438694143        0.0055295393
 C          3.1426740451        0.6222338741        0.9985027337
 C          2.5293708932        1.2816344519        2.0557398419
 C          3.2832932003        1.9179023825        3.0301072031
 C          4.6620516765        1.8949678196        2.9698086232
 C          5.2898897839        1.2119533170        1.9396960227
 C          4.5420048144        0.5736116164        0.9669840554
 O          5.2339191722       -0.1130721143        0.0031345363
 C          4.5078424155       -0.7623028083       -0.9614438226
 C          5.2217779400       -1.4343767947       -1.9370042668
 C          4.5594290000       -2.0829197360       -2.9678153413
 C          3.1811254013       -2.0372973200       -3.0261132411
 C          2.4611202559       -1.3670840369       -2.0488770885
 C          3.1078385826       -0.7420947652       -0.9905404388
 C          0.2871435079       -1.2001861032        0.1243481049
 C         -1.0984495477       -1.1873587568        0.1451770748
 C         -1.8351916423       -2.4481284014        0.3278408609
 C         -1.5124237070       -3.5605250538       -0.4484624617
 C         -2.1860601756       -4.7524209397       -0.2818497415
 C         -3.1925827203       -4.8488286963        0.6800828788
 C         -3.8811572570       -6.0701028111        0.8602004367
 N         -4.4348544670       -7.0633704177        1.0068570300
 C         -3.5143406512       -3.7434897380        1.4684547392
 C         -2.8384939828       -2.5543546368        1.2894707605
 C         -1.7750106399        0.0370059747        0.0052781054
 C         -3.1870645723        0.0646044913        0.0021251452
 N         -4.3347589332        0.0877320296       -0.0001975150
 C         -1.3861646936        3.6226586486        0.4557518913
 C         -2.0143494236        4.8378977646        0.2800298874
 H         -4.1225521753        3.9829868695       -2.2392158709
 H         -2.9931204754        1.8211732172       -1.9185870194
 H          0.8957200838        2.1105249336       -0.2216130848
 H          1.4525059631        1.2868806186        2.1301306698
 H          2.7796243267        2.4245348484        3.8386321960
 H          5.2529120510        2.3910558343        3.7228513860
 H          6.3644571457        1.1544209071        1.8747612475
 H          6.2980016001       -1.4303346465       -1.8736871139
 H          5.1239919080       -2.6049827088       -3.7236496018
 H          2.6517214273       -2.5160220991       -3.8352908289
 H          1.3851781283       -1.3190823313       -2.1214769293
 H          0.8148496320       -2.1354793861        0.2378936091
 H         -0.7401722837       -3.4818482328       -1.2000265736
 H         -1.9415027656       -5.6114537778       -0.8888370789
 H         -4.2895623616       -3.8250616629        2.2154323875
 H         -3.0785845076       -1.7055385683        1.9117973731
 H         -0.6251855046        3.5173205537        1.2155294129
 H         -1.7457572578        5.6885972215        0.8886848469
  56
        -95.50820730
 N         -4.2132119478        7.2037111611       -0.9646558780
 C         -3.6832287456        6.1964274251       -0.8264525049
 C         -3.0248319104        4.9572343990       -0.6563143574
 C         -2.0235002861        4.5730197391       -1.5493477535
 C         -1.3831106508        3.3635892047       -1.3783767673
 C         -1.7339813586        2.5170210614       -0.3276151166
 C         -1.0414557647        1.2287950423       -0.1611337465
 C          0.3434443872        1.1840650644       -0.1744078363
 C          1.0216720847       -0.0203939617        0.0025137311
 N          2.4226427536       -0.0486718353        0.0036662910
 C          3.1528655804        0.7091477262        0.9310647211
 C          2.5411835416        1.4563340305        1.9298087848
 C          3.2951497806        2.1888460886        2.8337692104
 C          4.6736961046        2.1760636818        2.7644073078
 C          5.3007567484        1.4032352109        1.7999608251
 C          4.5524548651        0.6683761167        0.8978869332
 O          5.2467275843       -0.1034578407        0.0034202242
 C          4.5229248482       -0.8467827545       -0.8917815834
 C          5.2420710504       -1.6090671684       -1.7948179775
 C          4.5854275893       -2.3561048658       -2.7598933551
 C          3.2074057044       -2.3156172539       -2.8288410299
 C          2.4825170571       -1.5553892361       -1.9239829588
 C          3.1228020092       -0.8332675262       -0.9247293039
 C          0.2956412677       -1.1969092041        0.1778005208
 C         -1.0899315624       -1.1870018993        0.1603991473
 C         -1.8328901395       -2.4469736499        0.3253272203
 C         -2.8428905231       -2.8016852215       -0.5671604319
 C         -3.5325469824       -3.9860988649       -0.4098517980
 C         -3.2180807875       -4.8354153314        0.6515281970
 C         -3.9247608808       -6.0477857526        0.8210006210
 N         -4.4944702640       -7.0331497929        0.9589341555
 C         -2.2026601171       -4.4913658841        1.5450837428
 C         -1.5155194278       -3.3077373019        1.3752983784
 C         -1.7658024714        0.0347692090       -0.0017003612
 C         -3.1776394716        0.0632919885       -0.0044227153
 N         -4.3253297846        0.0871235247       -0.0071021638
 C         -2.7294902846        2.9116524093        0.5643667325
 C         -3.3724366535        4.1218478607        0.4058015340
 H         -1.7585250652        5.2242098680       -2.3691303792
 H         -0.6174661066        3.0576546963       -2.0765411153
 H          0.9049329221        2.0961194438       -0.3124244295
 H          1.4653263543        1.4610875209        2.0144350681
 H          2.7906936558        2.7645165149        3.5941351004
 H          5.2644089824        2.7488014424        3.4612331274
 H          6.3753215353        1.3486457654        1.7321136619
 H          6.3179534040       -1.5961531079       -1.7271416963
 H          5.1534033032       -2.9505566338       -3.4574343701
 H          2.6808495950       -2.8706890466       -3.5895422221
 H          1.4072748493       -1.5186042480       -2.0084021110
 H          0.8203726017       -2.1304717426        0.3167293643
 H         -3.0796916146       -2.1526946052       -1.3967910033
 H         -4.3145480139       -4.2598476188       -1.1019909482
 H         -1.9633503671       -5.1531737542        2.3642704140
 H         -0.7387967379       -3.0325876238        2.0739298456
 H         -2.9911675536        2.2732620606        1.3947721403
 H         -4.1416481870        4.4277036815        1.0989253979
  56
        -95.50799351
 N         -4.2177246134        7.1735526349       -1.1298518663
 C         -3.6850749039        6.1729036176       -0.9581326682
 C         -3.0237970061        4.9410579519       -0.7496755485
 C         -2.0095684658        4.5409832273       -1.6209775296
 C         -1.3682223364        3.3376833497       -1.4151116177
 C         -1.7307509065        2.5125710083       -0.3509841853
 C         -1.0384556678        1.2275774036       -0.1601377703
 C          0.3469875469        1.1845090044       -0.1626790165
 C          1.0233711253       -0.0214595695        0.0020669320
 N          2.4266646398       -0.0489816964        0.0036705625
 C          3.1520804735        0.6300702798        0.9913047908
 C          2.5333302396        1.3038239695        2.0362058638
 C          3.2830641170        1.9483413467        3.0084407252
 C          4.6620695258        1.9197979618        2.9581913902
 C          5.2948401877        1.2265243387        1.9379439347
 C          4.5515704479        0.5807828585        0.9667316320
 O          5.2479889088       -0.1118546128        0.0101989434
 C          4.5262070323       -0.7645668292       -0.9555156088
 C          5.2443868906       -1.4346468101       -1.9291364090
 C          4.5858454729       -2.0909499477       -2.9575558506
 C          3.2071302373       -2.0580362340       -3.0135328009
 C          2.4824841994       -1.3887640531       -2.0389954054
 C          3.1260904320       -0.7515236430       -0.9861934024
 C          0.3004279855       -1.2003940870        0.1650580958
 C         -1.0856174496       -1.1892991027        0.1610012441
 C         -1.8287510765       -2.4459477753        0.3495903490
 C         -2.8504062997       -2.8149854188       -0.5233097281
 C         -3.5432871511       -3.9926574039       -0.3320123095
 C         -3.2205023331       -4.8199860299        0.7441204038
 C         -3.9320682295       -6.0238405518        0.9504630720
 N         -4.5057903664       -7.0020515291        1.1202756237
 C         -2.1924985144       -4.4620655342        1.6175950781
 C         -1.5020771164       -3.2858243805        1.4137234645
 C         -1.7612386021        0.0328044581        0.0004145650
 C         -3.1734839690        0.0602605088       -0.0000119689
 N         -4.3210914770        0.0844016219       -0.0002096484
 C         -2.7380871036        2.9235129163        0.5197660060
 C         -3.3819986262        4.1283622984        0.3263572722
 H         -1.7361484617        5.1744818902       -2.4517739383
 H         -0.5927134870        3.0186964809       -2.0964045764
 H          0.9102213644        2.0977846983       -0.2854379365
 H          1.4559691366        1.3187399526        2.1009839925
 H          2.7750521167        2.4668232094        3.8066663936
 H          5.2495104115        2.4211508475        3.7106257207
 H          6.3696959737        1.1674330939        1.8791978994
 H          6.3205469601       -1.4238932484       -1.8655856826
 H          5.1537518397       -2.6116126730       -3.7118814210
 H          2.6802385046       -2.5468850147       -3.8181766027
 H          1.4057338832       -1.3556293628       -2.1075245491
 H          0.8275475620       -2.1350641547        0.2871728073
 H         -3.0951880078       -2.1822711535       -1.3631822000
 H         -4.3350865905       -4.2774146024       -1.0083822690
 H         -1.9462736624       -5.1071037256        2.4479945464
 H         -0.7151990122       -2.9993890125        2.0963999137
 H         -3.0091510217        2.3024954782        1.3602680649
 H         -4.1621672441        4.4461321651        1.0015547962
