  56
  -95.2103611175000       0.366865034625784      !
 N         -4.6569751774        6.9413778587       -0.8666272911
 C         -4.0666290633        5.9662625473       -0.7426320730
 C         -3.3327562168        4.7680126016       -0.5892124302
 C         -2.2766694849        4.4824328635       -1.4556796701
 C         -1.5607562702        3.3142598020       -1.2983590486
 C         -1.8890315584        2.4109292756       -0.2883558798
 C         -1.1149342039        1.1696398935       -0.1310631402
 C          0.2701132091        1.2155416894       -0.1191008644
 C          1.0218051688        0.0514376930        0.0268381279
 N          2.4214516846        0.1097255857        0.0399385097
 C          3.0995607054        0.8833396223        0.9933939481
 C          2.4382087030        1.5704038044        2.0033247018
 C          3.1419641376        2.3223512272        2.9315833177
 C          4.5194382561        2.3888152659        2.8752312614
 C          5.1973863402        1.6751290697        1.8995072532
 C          4.4995790364        0.9210739351        0.9733423484
 O          5.2437249246        0.2092472538        0.0691057960
 C          4.5706821825       -0.5490133588       -0.8525327338
 C          5.3387666072       -1.2477390579       -1.7667949409
 C          4.7329738427       -2.0026813628       -2.7584496661
 C          3.3555002176       -2.0327829184       -2.8431762755
 C          2.5821555165       -1.3364585794       -1.9272828194
 C          3.1724620262       -0.6096268985       -0.9009015802
 C          0.3710150860       -1.1741003334        0.1573801843
 C         -1.0122283266       -1.2514070906        0.1412002164
 C         -1.6757850258       -2.5565878029        0.2814622887
 C         -1.2425059204       -3.6410750142       -0.4806786068
 C         -1.8553439201       -4.8709955746       -0.3647416856
 C         -2.9125146140       -5.0346413777        0.5314111667
 C         -3.5417535497       -6.2941178691        0.6572124963
 N         -4.0483741783       -7.3175827343        0.7602575666
 C         -3.3444916585       -3.9580775645        1.3069097859
 C         -2.7285588311       -2.7306558703        1.1782555752
 C         -1.7625854677       -0.0717033067       -0.0076746793
 C         -3.1664066121       -0.1429343497       -0.1425496700
 N         -4.3029329802       -0.2018207486       -0.2923702772
 C         -2.9429010239        2.7057699704        0.5749127530
 C         -3.6611357647        3.8745718237        0.4309408627
 H         -2.0280900236        5.1772561773       -2.2440415509
 H         -0.7518355026        3.0846309716       -1.9765661189
 H          0.7731757554        2.1655109213       -0.2217662791
 H          1.3633821579        1.5113733202        2.0784061919
 H          2.5992494856        2.8498987124        3.7004626648
 H          5.0712642550        2.9772682230        3.5905369668
 H          6.2738503924        1.6828489473        1.8417265534
 H          6.4115561259       -1.1788185563       -1.6865851362
 H          5.3385934880       -2.5474790757       -3.4647599065
 H          2.8680783420       -2.5927149637       -3.6262092570
 H          1.5074048089       -1.3491643724       -2.0246837085
 H          0.9539829742       -2.0717787338        0.3002011146
 H         -0.4324751244       -3.5107164839       -1.1835810457
 H         -1.5251760212       -5.7079723213       -0.9619523884
 H         -4.1582358185       -4.0921812235        2.0036623768
 H         -3.0559790504       -1.9032977976        1.7897392567
 H         -3.1914587438        2.0219590707        1.3726773028
 H         -4.4755400355        4.1031783252        1.1018180956
  56
  -95.2098763928000       0.219655596720427      !
 N         -4.5891983900        6.9628900771       -1.0444042738
 C         -4.0143732525        5.9830735033       -0.8886972810
 C         -3.2998202376        4.7781099131       -0.6996458686
 C         -3.5635317488        3.6755724186       -1.5131719502
 C         -2.8619293426        2.5027180577       -1.3258167542
 C         -1.8899890344        2.4104053828       -0.3310378199
 C         -1.1252095982        1.1673378233       -0.1415713676
 C          0.2585490288        1.2160494995       -0.0834785358
 C          1.0088759334        0.0484967848        0.0330865942
 N          2.4094770727        0.1093199388        0.0643408201
 C          3.0719747479        0.8053796230        1.0839361921
 C          2.3929273942        1.4084687924        2.1345923330
 C          3.0813729825        2.0765397824        3.1357672945
 C          4.4598242938        2.1421107749        3.1091350609
 C          5.1542372467        1.5159714019        2.0856304903
 C          4.4719081206        0.8461894185        1.0862308285
 O          5.2289115276        0.2194567666        0.1304913531
 C          4.5688422973       -0.4599290567       -0.8603884960
 C          5.3471607078       -1.0705080296       -1.8270938939
 C          4.7521979797       -1.7441610503       -2.8826015898
 C          3.3755642713       -1.7852730275       -2.9742001621
 C          2.5912693899       -1.1769614908       -2.0059944166
 C          3.1714888302       -0.5282200081       -0.9236762852
 C          0.3601518383       -1.1812720301        0.1150980972
 C         -1.0235369754       -1.2567667202        0.1019709771
 C         -1.6824084457       -2.5643866778        0.2493259960
 C         -1.2709627499       -3.6421957452       -0.5338038494
 C         -1.8708916168       -4.8768394622       -0.4000057179
 C         -2.8917322693       -5.0514761747        0.5354529051
 C         -3.5050091588       -6.3165879009        0.6819843612
 N         -3.9974850841       -7.3451098201        0.8014808875
 C         -3.3020058982       -3.9808278409        1.3305757032
 C         -2.6994023498       -2.7486118925        1.1844282004
 C         -1.7733771284       -0.0758594384       -0.0379338669
 C         -3.1838397427       -0.1379325276       -0.0754848006
 N         -4.3302908270       -0.1876937129       -0.1057562312
 C         -1.6250353190        3.5200368191        0.4705518387
 C         -2.3251793612        4.6954505498        0.2959057147
 H         -4.3141688756        3.7465364800       -2.2858521112
 H         -3.0569455060        1.6562059393       -1.9668462772
 H          0.7641528847        2.1662460525       -0.1708529540
 H          1.3164638051        1.3442035023        2.1825058909
 H          2.5273561951        2.5379031799        3.9384382536
 H          4.9997842850        2.6632886003        3.8831567565
 H          6.2315224916        1.5277732697        2.0464037722
 H          6.4191260893       -0.9990941591       -1.7372437559
 H          5.3667031081       -2.2178510632       -3.6313122634
 H          2.8971405761       -2.2843748141       -3.8025856551
 H          1.5164823617       -1.1962844402       -2.1044110316
 H          0.9436523187       -2.0827780629        0.2289133952
 H         -0.4877056960       -3.5033038321       -1.2649866865
 H         -1.5576653421       -5.7093474666       -1.0123774147
 H         -4.0879327526       -4.1227280380        2.0570614909
 H         -3.0078835758       -1.9262468459        1.8121045934
 H         -0.8771142622        3.4517711185        1.2473408767
 H         -2.1259550134        5.5522009222        0.9224682700
  56
  -95.2095128406000       0.149508281750730      !
 N         -4.5961420955        6.9779293322       -0.8833840480
 C         -4.0179609887        5.9946835409       -0.7660836409
 C         -3.2999236325        4.7864471066       -0.6157001505
 C         -3.5944126225        3.6925544649       -1.4302295135
 C         -2.8907463039        2.5156530980       -1.2785125827
 C         -1.8867416265        2.4101757435       -0.3176737901
 C         -1.1240088075        1.1626649272       -0.1514670440
 C          0.2601597754        1.2083672184       -0.1090099344
 C          1.0120429166        0.0424265746        0.0218824762
 N          2.4104757316        0.1052373530        0.0574184685
 C          3.0668825331        0.8740731358        1.0296414974
 C          2.3840081027        1.5412492378        2.0388098824
 C          3.0653963673        2.2912677549        2.9849269124
 C          4.4426914109        2.3754632702        2.9477899151
 C          5.1423356842        1.6795385761        1.9747857066
 C          4.4663603148        0.9269571498        1.0310784320
 O          5.2311968894        0.2309897556        0.1320556921
 C          4.5797310314       -0.5279228864       -0.8045848179
 C          5.3686721264       -1.2149690568       -1.7097781824
 C          4.7857894016       -1.9676938236       -2.7168591017
 C          3.4103307909       -2.0061198488       -2.8267364782
 C          2.6160679176       -1.3221990884       -1.9193385831
 C          3.1829736572       -0.5997075511       -0.8770260086
 C          0.3602025564       -1.1855168078        0.1183785956
 C         -1.0231280021       -1.2599255063        0.0989870081
 C         -1.6825288106       -2.5693164830        0.2303008090
 C         -1.2709860454       -3.6329169671       -0.5724478495
 C         -1.8767120821       -4.8674186073       -0.4678207650
 C         -2.9040257026       -5.0566165389        0.4578170797
 C         -3.5265002526       -6.3207561493        0.5702989907
 N         -4.0265908613       -7.3485212052        0.6618571151
 C         -3.3117299985       -4.0016502885        1.2751536144
 C         -2.7032069779       -2.7690568932        1.1580214863
 C         -1.7738318358       -0.0792697929       -0.0406772219
 C         -3.1840407017       -0.1423634883       -0.0700559348
 N         -4.3307467873       -0.1976564614       -0.0884036341
 C         -1.5903660288        3.5123694515        0.4838482174
 C         -2.2909836941        4.6918637325        0.3439811616
 H         -4.3711146073        3.7731264539       -2.1757474935
 H         -3.1107869880        1.6763751032       -1.9207923526
 H          0.7651604413        2.1568473502       -0.2155739110
 H          1.3092623130        1.4637983621        2.0997543943
 H          2.5067193318        2.8029189469        3.7532746394
 H          4.9771400386        2.9630150710        3.6769360751
 H          6.2193955719        1.6991649583        1.9324918601
 H          6.4394876785       -1.1389651882       -1.6107514828
 H          5.4080190416       -2.5034282338       -3.4156591399
 H          2.9406865058       -2.5632941349       -3.6224938183
 H          1.5433596670       -1.3404123515       -2.0366073607
 H          0.9402277714       -2.0871342014        0.2476584477
 H         -0.4828172471       -3.4824143621       -1.2962070644
 H         -1.5641301883       -5.6880432073       -1.0962450286
 H         -4.1017896062       -4.1553335885        1.9945820576
 H         -3.0124694418       -1.9582364283        1.8000535704
 H         -0.8171944269        3.4347379568        1.2345883075
 H         -2.0665729385        5.5421326680        0.9708591151
  56
  -95.2094747669000       0.143604414055410      !
 N         -4.6405978544        6.9070568937       -1.1327136361
 C         -4.0491592862        5.9398238661       -0.9619437842
 C         -3.3154543187        4.7495134001       -0.7545200919
 C         -2.2577762930        4.4280945458       -1.6065139730
 C         -1.5457227230        3.2650400942       -1.4017695395
 C         -1.8793148621        2.4024215590       -0.3581172603
 C         -1.1108563780        1.1613186329       -0.1682786428
 C          0.2741899940        1.2065255001       -0.1379944432
 C          1.0223242677        0.0436635607        0.0264543092
 N          2.4240890242        0.1054559289        0.0615256341
 C          3.0814809857        0.8141616094        1.0755932622
 C          2.3968325009        1.4311898777        2.1144131249
 C          3.0810523213        2.1072166609        3.1131999830
 C          4.4598532752        2.1672345433        3.0958384933
 C          5.1591664586        1.5312446311        2.0817330744
 C          4.4814503775        0.8543920510        1.0841074931
 O          5.2427453512        0.2221157935        0.1352361525
 C          4.5867857012       -0.4604092382       -0.8564711782
 C          5.3687451077       -1.0685315394       -1.8215896712
 C          4.7775634505       -1.7496611975       -2.8745017246
 C          3.4012362955       -1.8036815893       -2.9632586503
 C          2.6128561049       -1.1967907090       -1.9973909563
 C          3.1897909916       -0.5360045458       -0.9207275161
 C          0.3726861139       -1.1812230949        0.1557696186
 C         -1.0107628773       -1.2582726953        0.1184366213
 C         -1.6761674988       -2.5623814966        0.2717867054
 C         -2.6516034690       -2.9823318665       -0.6304821442
 C         -3.2719863023       -4.2044772466       -0.4721290859
 C         -2.9219898952       -5.0258893607        0.6000224728
 C         -3.5596886807       -6.2755791378        0.7726050662
 N         -4.0734490598       -7.2907824427        0.9150923694
 C         -1.9395222650       -4.6166371676        1.5028662783
 C         -1.3212100133       -3.3958844955        1.3318649148
 C         -1.7592650317       -0.0793251809       -0.0416146820
 C         -3.1699839708       -0.1417709458       -0.0757261794
 N         -4.3164715946       -0.1906913140       -0.1032716114
 C         -2.9307988340        2.7351312252        0.4936403909
 C         -3.6457999010        3.8993788967        0.3013077253
 H         -2.0062416730        5.0902864794       -2.4217034634
 H         -0.7358050573        3.0064533718       -2.0684726033
 H          0.7805485440        2.1555486075       -0.2345901949
 H          1.3195115059        1.3765436132        2.1533861690
 H          2.5225388112        2.5801084935        3.9059797922
 H          4.9964117851        2.6934262066        3.8690307274
 H          6.2366736861        1.5415589898        2.0481232350
 H          6.4402494118       -0.9903018642       -1.7319600252
 H          5.3949537933       -2.2215873337       -3.6219836760
 H          2.9254977633       -2.3127484252       -3.7870082978
 H          1.5380710976       -1.2311878683       -2.0914091365
 H          0.9555375878       -2.0822147608        0.2777260187
 H         -2.9168089892       -2.3537532924       -1.4672534411
 H         -4.0280485040       -4.5286974817       -1.1712431844
 H         -1.6718689303       -5.2572771576        2.3300339267
 H         -0.5703113601       -3.0703988516        2.0371874038
 H         -3.1810063004        2.0853958392        1.3187598786
 H         -4.4601473123        4.1565476086        0.9617886140
  56
  -95.2093079548000       0.120366672847650      !
 N         -4.6394894386        6.9364219897       -0.9676559836
 C         -4.0498420263        5.9627175092       -0.8304757897
 C         -3.3180617997        4.7652378466       -0.6614406001
 C         -2.2736390242        4.4589045824       -1.5350169107
 C         -1.5617387743        3.2899713557       -1.3651777915
 C         -1.8825434031        2.4069047931       -0.3350487911
 C         -1.1135057762        1.1627130530       -0.1695131054
 C          0.2713624758        1.2059644538       -0.1496474531
 C          1.0205575965        0.0442967771        0.0271305891
 N          2.4200737162        0.1047620361        0.0620356740
 C          3.0786258607        0.8930120660        1.0173129510
 C          2.3973689489        1.5845984746        2.0110580160
 C          3.0817704605        2.3494567364        2.9431362670
 C          4.4595807306        2.4250439696        2.9072216360
 C          5.1570090948        1.7083186222        1.9477820248
 C          4.4783640731        0.9414480680        1.0176952595
 O          5.2411455818        0.2288995699        0.1298597074
 C          4.5873210883       -0.5449728656       -0.7928773028
 C          5.3745117581       -1.2462861125       -1.6885413558
 C          4.7895664472       -2.0185419647       -2.6795389960
 C          3.4137584872       -2.0643328750       -2.7814850285
 C          2.6209268051       -1.3654631126       -1.8841683074
 C          3.1903361419       -0.6196291323       -0.8597479193
 C          0.3669889021       -1.1783703249        0.1684367848
 C         -1.0156143745       -1.2559435654        0.1174112815
 C         -1.6805159538       -2.5628031660        0.2467998550
 C         -2.6446822206       -2.9670493385       -0.6748420088
 C         -3.2610360134       -4.1950199248       -0.5507293253
 C         -2.9181106317       -5.0388665018        0.5061907658
 C         -3.5499542506       -6.2959984848        0.6416622148
 N         -4.0588549232       -7.3174513612        0.7520744420
 C         -1.9478828329       -4.6449329754        1.4288852270
 C         -1.3336965025       -3.4177141166        1.2922285714
 C         -1.7639077792       -0.0770781981       -0.0442544340
 C         -3.1742439801       -0.1379630348       -0.0809901429
 N         -4.3207444239       -0.1868056891       -0.1113101637
 C         -2.9217953869        2.7240173738        0.5377618797
 C         -3.6365860456        3.8933621530        0.3802719190
 H         -2.0315094454        5.1380346808       -2.3390440132
 H         -0.7620124902        3.0438474040       -2.0486262675
 H          0.7767302214        2.1537441342       -0.2613536073
 H          1.3217036816        1.5199301500        2.0694971440
 H          2.5240005330        2.8803286328        3.6988455006
 H          4.9961330819        3.0233011394        3.6260654316
 H          6.2341641836        1.7229182058        1.9053969676
 H          6.4455064542       -1.1663170694       -1.5944934748
 H          5.4104322650       -2.5650951528       -3.3711588573
 H          2.9415880820       -2.6399220108       -3.5623720820
 H          1.5477994014       -1.3955418818       -1.9942518076
 H          0.9466863038       -2.0788537868        0.3072303976
 H         -2.9028019697       -2.3217327086       -1.5009722069
 H         -4.0075799007       -4.5071059449       -1.2654286586
 H         -1.6861993635       -5.3027209687        2.2444600754
 H         -0.5926602020       -3.1046637003        2.0133083503
 H         -3.1616985355        2.0577061028        1.3526644145
 H         -4.4397479108        4.1392588864        1.0585938719
