  62
        -93.40006812
 C          2.2014871523       -4.5304234215       -1.8804309850
 C          1.0900357274       -4.6386732839       -1.0969106548
 B          0.4718493730       -3.3697743899       -0.5090447300
 C          1.2352132221       -2.0463635697       -0.7712136059
 C          0.7134052719       -0.8249511384       -0.2724001243
 C         -0.6213801493       -0.7842161108        0.1663246447
 C         -1.3481260466        0.4353282013       -0.0024652162
 C         -2.7303605191        0.4742102041       -0.0478139469
 C         -3.4666191255        1.6354197720       -0.3155508052
 C         -4.9114377508        1.6679676429       -0.2730662103
 C         -5.5936790503        2.8724439604       -0.0421694035
 C         -6.9699862979        2.9115618298        0.0266058475
 C         -7.7154040546        1.7534921006       -0.1340350194
 C         -7.0599311012        0.5536992469       -0.3664059458
 C         -5.6837939702        0.5076218847       -0.4346465917
 C         -2.6923931046        2.7757768193       -0.6693171884
 C         -1.3429082952        2.7259804502       -0.6781728430
 N         -0.6320678007        1.6073380942       -0.2963412647
 C          0.7423120824        1.6407967142       -0.1642109910
 C          1.4454856217        2.8361850580        0.0109704576
 C          2.8193626129        2.8308384833        0.1473541853
 C          3.5340442542        1.6366787370        0.1658320604
 C          4.9857695647        1.6293034288        0.3722000550
 C          5.5863468191        0.6577027223        1.1721558950
 C          6.9524851487        0.6613903179        1.3794590595
 C          7.7457977494        1.6302197548        0.7872947327
 C          7.1615509594        2.5976342023       -0.0136785670
 C          5.7948199113        2.5997829808       -0.2175982509
 C          2.8279620512        0.4418005495        0.0144310958
 C          1.4554403334        0.4241635008       -0.1922120855
 C         -1.2549917192       -1.9711333366        0.7208959877
 C         -2.2252987773       -1.8461095094        1.7197930489
 C         -2.8258256081       -2.9623554859        2.2732200130
 C         -2.4556939528       -4.2298135943        1.8526756938
 C         -1.4366654167       -4.3658911389        0.9279863065
 C         -0.7992885283       -3.2602382187        0.3618261494
 C          2.3347028040       -2.0855776519       -1.6397534773
 C          2.7945761347       -3.2780148111       -2.1580638969
 H          2.6572670902       -5.4049283776       -2.3296933073
 H          0.6739330622       -5.6294692082       -0.9605028825
 H         -3.2566543734       -0.4495040221        0.1154448859
 H         -5.0337705761        3.7820353386        0.1163819111
 H         -7.4690181556        3.8514365223        0.2146513293
 H         -8.7931276367        1.7855358084       -0.0790833917
 H         -7.6312616466       -0.3540727805       -0.4991728532
 H         -5.2012153019       -0.4354145711       -0.6425590733
 H         -3.1781883749        3.6770733774       -1.0054884322
 H         -0.7561596804        3.5574934136       -1.0298885581
 H          0.9218427199        3.7760367055        0.0832523570
 H          3.3358931702        3.7671272408        0.2961777912
 H          4.9726696954       -0.0890827794        1.6545920579
 H          7.4010069384       -0.0933609395        2.0091172565
 H          8.8134026436        1.6313888615        0.9492410302
 H          7.7753847874        3.3527170466       -0.4830378519
 H          5.3488514569        3.3471960211       -0.8578771958
 H          3.3604697380       -0.4937355009        0.0662995948
 H         -2.4786026791       -0.8691663582        2.1051947825
 H         -3.5797330265       -2.8397701047        3.0372243011
 H         -2.9414555683       -5.1021855603        2.2647178836
 H         -1.1146808248       -5.3545615881        0.6361962375
 H          2.8211810024       -1.1712829257       -1.9541068798
 H          3.6543250732       -3.2584955130       -2.8148436144
