  62
  -93.0211415017000       0.772084168297402      !
 C          2.2014871523       -4.5304234215       -1.8804309850
 C          1.0900357274       -4.6386732839       -1.0969106548
 B          0.4718493730       -3.3697743899       -0.5090447300
 C          1.2352132221       -2.0463635697       -0.7712136059
 C          0.7134052719       -0.8249511384       -0.2724001243
 C         -0.6213801493       -0.7842161108        0.1663246447
 C         -1.3481260466        0.4353282013       -0.0024652162
 C         -2.7303605191        0.4742102041       -0.0478139469
 C         -3.4666191255        1.6354197720       -0.3155508052
 C         -4.9114377508        1.6679676429       -0.2730662103
 C         -5.5936790503        2.8724439604       -0.0421694035
 C         -6.9699862979        2.9115618298        0.0266058475
 C         -7.7154040546        1.7534921006       -0.1340350194
 C         -7.0599311012        0.5536992469       -0.3664059458
 C         -5.6837939702        0.5076218847       -0.4346465917
 C         -2.6923931046        2.7757768193       -0.6693171884
 C         -1.3429082952        2.7259804502       -0.6781728430
 N         -0.6320678007        1.6073380942       -0.2963412647
 C          0.7423120824        1.6407967142       -0.1642109910
 C          1.4454856217        2.8361850580        0.0109704576
 C          2.8193626129        2.8308384833        0.1473541853
 C          3.5340442542        1.6366787370        0.1658320604
 C          4.9857695647        1.6293034288        0.3722000550
 C          5.5863468191        0.6577027223        1.1721558950
 C          6.9524851487        0.6613903179        1.3794590595
 C          7.7457977494        1.6302197548        0.7872947327
 C          7.1615509594        2.5976342023       -0.0136785670
 C          5.7948199113        2.5997829808       -0.2175982509
 C          2.8279620512        0.4418005495        0.0144310958
 C          1.4554403334        0.4241635008       -0.1922120855
 C         -1.2549917192       -1.9711333366        0.7208959877
 C         -2.2252987773       -1.8461095094        1.7197930489
 C         -2.8258256081       -2.9623554859        2.2732200130
 C         -2.4556939528       -4.2298135943        1.8526756938
 C         -1.4366654167       -4.3658911389        0.9279863065
 C         -0.7992885283       -3.2602382187        0.3618261494
 C          2.3347028040       -2.0855776519       -1.6397534773
 C          2.7945761347       -3.2780148111       -2.1580638969
 H          2.6572670902       -5.4049283776       -2.3296933073
 H          0.6739330622       -5.6294692082       -0.9605028825
 H         -3.2566543734       -0.4495040221        0.1154448859
 H         -5.0337705761        3.7820353386        0.1163819111
 H         -7.4690181556        3.8514365223        0.2146513293
 H         -8.7931276367        1.7855358084       -0.0790833917
 H         -7.6312616466       -0.3540727805       -0.4991728532
 H         -5.2012153019       -0.4354145711       -0.6425590733
 H         -3.1781883749        3.6770733774       -1.0054884322
 H         -0.7561596804        3.5574934136       -1.0298885581
 H          0.9218427199        3.7760367055        0.0832523570
 H          3.3358931702        3.7671272408        0.2961777912
 H          4.9726696954       -0.0890827794        1.6545920579
 H          7.4010069384       -0.0933609395        2.0091172565
 H          8.8134026436        1.6313888615        0.9492410302
 H          7.7753847874        3.3527170466       -0.4830378519
 H          5.3488514569        3.3471960211       -0.8578771958
 H          3.3604697380       -0.4937355009        0.0662995948
 H         -2.4786026791       -0.8691663582        2.1051947825
 H         -3.5797330265       -2.8397701047        3.0372243011
 H         -2.9414555683       -5.1021855603        2.2647178836
 H         -1.1146808248       -5.3545615881        0.6361962375
 H          2.8211810024       -1.1712829257       -1.9541068798
 H          3.6543250732       -3.2584955130       -2.8148436144
  62
  -93.0182189280000       3.503827926653250E-002 !
 C          2.8621275434       -4.6662825355        0.0341988837
 C          1.5789338219       -4.6752064223        0.4940908414
 B          0.7000311732       -3.4443158424        0.2422392710
 C          1.4236839886       -2.1930655051       -0.3113524924
 C          0.7098239345       -0.9566093287       -0.3430468646
 C         -0.6821273612       -0.9614085721       -0.3238403852
 C         -1.3825315806        0.2922987687       -0.3663251949
 C         -2.6730586607        0.4781080117        0.0865008241
 C         -3.3993930709        1.6541643484       -0.1462765780
 C         -4.7279435330        1.8739350486        0.3798140929
 C         -5.2332609899        3.1745552110        0.5266812048
 C         -6.4975378624        3.3965959497        1.0299233296
 C         -7.3022461163        2.3314284027        1.4042318735
 C         -6.8202635779        1.0383992599        1.2679659958
 C         -5.5565479952        0.8099396792        0.7659899305
 C         -2.7619125383        2.5946338340       -1.0050000667
 C         -1.4665677711        2.4492321213       -1.3575602804
 N         -0.6938885204        1.3981795569       -0.8913901115
 C          0.6715996737        1.4789528201       -0.7678897319
 C          1.3643013434        2.6837745320       -0.9408114464
 C          2.7088793260        2.7716502882       -0.6500780953
 C          3.4018309095        1.6852347751       -0.1197621989
 C          4.8057005259        1.8018279629        0.2836627090
 C          5.2795260939        1.1378760906        1.4154746962
 C          6.6018781786        1.2517194572        1.7987819554
 C          7.4797340109        2.0264606723        1.0585105886
 C          7.0227759636        2.6883680520       -0.0691515581
 C          5.6998261485        2.5791139641       -0.4525829934
 C          2.7175256989        0.4771124364        0.0215971331
 C          1.3924864567        0.3314326368       -0.3633723128
 C         -1.4461717539       -2.2056991225       -0.3051115478
 C         -2.7614480340       -2.2603226733       -0.7721683592
 C         -3.5206323336       -3.4095577329       -0.6374907787
 C         -2.9763687551       -4.5342941904       -0.0382101172
 C         -1.6424377539       -4.5263777918        0.3255081642
 C         -0.8384179382       -3.3949794265        0.1663559792
 C          2.7146730833       -2.3609829863       -0.8172612607
 C          3.3986603519       -3.5492693139       -0.6466333731
 H          3.5065530851       -5.5288091698        0.1553881343
 H          1.2278421344       -5.5788355915        0.9767238336
 H         -3.1175079985       -0.3185543723        0.6587041251
 H         -4.6127066329        4.0198573237        0.2688450103
 H         -6.8596163186        4.4091136441        1.1386549610
 H         -8.2919469094        2.5066353001        1.7982277370
 H         -7.4410707191        0.2005687928        1.5522278107
 H         -5.2168379173       -0.2079301728        0.6473224424
 H         -3.3222568784        3.4214920060       -1.4104770574
 H         -0.9809436140        3.1357890335       -2.0310570252
 H          0.8442944138        3.5750210525       -1.2514589517
 H          3.2086225150        3.7212276971       -0.7688922135
 H          4.5986152959        0.5477903017        2.0113798367
 H          6.9500436425        0.7353118451        2.6816018039
 H          8.5135582011        2.1129243015        1.3580428383
 H          7.7027192034        3.2908501640       -0.6540044857
 H          5.3583406165        3.0831146194       -1.3450598692
 H          3.2356697165       -0.3696206556        0.4404723673
 H         -3.1898088123       -1.4103074568       -1.2822625687
 H         -4.5359266346       -3.4263784301       -1.0067077324
 H         -3.5748331048       -5.4237810714        0.0938994291
 H         -1.1965265361       -5.4259465009        0.7238528544
 H          3.1952560329       -1.5699352907       -1.3788487641
 H          4.4035337088       -3.6289409895       -1.0396151717
  62
  -93.0181481427000       3.250963535515711E-002 !
 C          2.8408804298       -4.6333327359       -0.5049784889
 C          1.5445308602       -4.6011782378       -0.9251767130
 B          0.6768838468       -3.3986980677       -0.5352022042
 C          1.4207320603       -2.1999591881        0.1011699659
 C          0.7116767433       -0.9693799457        0.2563686958
 C         -0.6796754658       -0.9733586593        0.2812933754
 C         -1.3753922377        0.2759548494        0.4307619486
 C         -2.6743257202        0.4977888154        0.0249975234
 C         -3.3949444361        1.6517615880        0.3700587023
 C         -4.7331732222        1.8968254377       -0.1191434061
 C         -5.1621170518        1.3457754014       -1.3362750398
 C         -6.4330006282        1.5800636582       -1.8165416575
 C         -7.3212131107        2.3691399532       -1.1017011133
 C         -6.9162915785        2.9219133062        0.1037065739
 C         -5.6455907575        2.6933051064        0.5878507793
 C         -2.7346286561        2.5216235710        1.2816131142
 C         -1.4261711188        2.3566213998        1.5745355952
 N         -0.6691777813        1.3406260925        1.0148293766
 C          0.6928221789        1.4291579773        0.8601838368
 C          1.3945960063        2.6172353677        1.1009854663
 C          2.7320720624        2.7226253567        0.7854255436
 C          3.4080806861        1.6750069329        0.1631414429
 C          4.8048364551        1.8146471182       -0.2574079631
 C          5.7182577683        2.5232942027        0.5228029364
 C          7.0355379881        2.6521394881        0.1260397653
 C          7.4667018162        2.0789535072       -1.0588262393
 C          6.5689612124        1.3738905012       -1.8438115470
 C          5.2523921806        1.2403736182       -1.4474965389
 C          2.7151017395        0.4830451197       -0.0508515964
 C          1.3989460089        0.3126776614        0.3546273654
 C         -1.4454163025       -2.2136806783        0.1934393793
 C         -2.7410360068       -2.3082755677        0.7060870242
 C         -3.5035307844       -3.4472071722        0.5141458128
 C         -2.9835176804       -4.5198052010       -0.1925690338
 C         -1.6663044768       -4.4779865259       -0.6106866454
 C         -0.8571711899       -3.3596118533       -0.3955039143
 C          2.7244396425       -2.4134248774        0.5538129476
 C          3.3994957363       -3.5824652789        0.2583458627
 H          3.4795732672       -5.4808864095       -0.7232717548
 H          1.1767630234       -5.4570196247       -1.4774473729
 H         -3.1586094354       -0.2734840865       -0.5501816607
 H         -4.4773782572        0.7520855215       -1.9239417269
 H         -6.7345466209        1.1499246831       -2.7612935635
 H         -8.3155306967        2.5526080405       -1.4798916865
 H         -7.6017137870        3.5348876894        0.6711842246
 H         -5.3651419393        3.1159432628        1.5408094131
 H         -3.2622262637        3.3468453295        1.7305955835
 H         -0.9142612482        3.0086590759        2.2618973296
 H          0.8868105940        3.4857630244        1.4868380711
 H          3.2391287309        3.6596880259        0.9598464382
 H          5.3961564826        2.9572220642        1.4583365643
 H          7.7311836901        3.1996993992        0.7454425592
 H          8.4960092929        2.1808772363       -1.3687801741
 H          6.8973258113        0.9285996756       -2.7718377307
 H          4.5548380195        0.7058955546       -2.0758390414
 H          3.2193952459       -0.3311702872       -0.5442285844
 H         -3.1505994134       -1.5013384636        1.2951756970
 H         -4.5029383819       -3.4960879108        0.9213474340
 H         -3.5860905315       -5.3989212071       -0.3681095892
 H         -1.2363757581       -5.3413420021       -1.0970784891
 H          3.2244798537       -1.6754461413        1.1682052098
 H          4.4154435584       -3.6968011231        0.6124630526
  62
  -93.0182085440000       3.465537589014030E-002 !
 C          2.8281896283       -4.6451982528       -0.1945879242
 C          1.5333631538       -4.6359088616       -0.6218591479
 B          0.6718054697       -3.4045378925       -0.3196924558
 C          1.4216767440       -2.1638222915        0.2229542104
 C          0.7192091583       -0.9199399276        0.2789308910
 C         -0.6718363250       -0.9186728362        0.3109377448
 C         -1.3712971686        0.3337113116        0.3529444967
 C         -2.6874454575        0.4948052146       -0.0334810548
 C         -3.4121980418        1.6706971839        0.1974197612
 C         -4.7806488532        1.8452931246       -0.2360787066
 C         -5.6190016063        0.7495867198       -0.4890163641
 C         -6.9241646284        0.9310911464       -0.8946715784
 C         -7.4389786911        2.2076501741       -1.0640231672
 C         -6.6248955010        3.3037547823       -0.8215793270
 C         -5.3191678632        3.1284442058       -0.4144238880
 C         -2.7304841390        2.6563009213        0.9665772904
 C         -1.4166671112        2.5319237001        1.2519386112
 N         -0.6628502086        1.4599691114        0.8019511000
 C          0.7006093769        1.5274414879        0.6450826741
 C          1.4035227727        2.7327940681        0.7688750805
 C          2.7497929797        2.7997370390        0.4796316928
 C          3.4346876245        1.6897368985       -0.0090365026
 C          4.8502774528        1.7700436782       -0.3795789818
 C          5.3438799897        1.0729323027       -1.4822482766
 C          6.6813728911        1.1449139741       -1.8211649018
 C          7.5540793597        1.9091571867       -1.0640423366
 C          7.0767838850        2.6050817953        0.0342920023
 C          5.7389129443        2.5383946520        0.3726212615
 C          2.7353311563        0.4879409034       -0.1268440171
 C          1.4094868314        0.3635355394        0.2644870974
 C         -1.4370948628       -2.1632021118        0.3450412372
 C         -2.7192620785       -2.2152982684        0.8953393739
 C         -3.4851215327       -3.3652638620        0.8136659385
 C         -2.9807700387       -4.4910460318        0.1821960097
 C         -1.6730083942       -4.4848985046       -0.2661941514
 C         -0.8600640912       -3.3534141844       -0.1599010739
 C          2.7198165380       -2.3535792569        0.6998848148
 C          3.3890385364       -3.5457266619        0.4939019910
 H          3.4628788349       -5.5094577818       -0.3495899811
 H          1.1629475942       -5.5263123826       -1.1143431912
 H         -3.1557314010       -0.3249275521       -0.5512999048
 H         -5.2520766412       -0.2543517538       -0.3400275839
 H         -7.5512536369        0.0700945541       -1.0759525705
 H         -8.4615653126        2.3461645666       -1.3811177378
 H         -7.0134533143        4.3031041021       -0.9564204726
 H         -4.6949990740        3.9952217407       -0.2565467918
 H         -3.2702891556        3.5024390812        1.3600324301
 H         -0.9013951891        3.2543787411        1.8624909117
 H          0.8927091237        3.6398805651        1.0465954900
 H          3.2583405459        3.7478505734        0.5696331902
 H          4.6679802983        0.4890484968       -2.0899310280
 H          7.0459425429        0.6035138565       -2.6821673128
 H          8.5997945453        1.9616722055       -1.3279131091
 H          7.7525408099        3.1989132773        0.6327149531
 H          5.3800012236        3.0671255415        1.2437977007
 H          3.2449013887       -0.3721104699       -0.5279800011
 H         -3.1134992226       -1.3626895914        1.4283504554
 H         -4.4740691925       -3.3817507158        1.2485904229
 H         -3.5867805479       -5.3805091442        0.0908899077
 H         -1.2533507437       -5.3855659324       -0.6895913324
 H          3.2202503733       -1.5774621826        1.2649849491
 H          4.4021636599       -3.6399621327        0.8615769303
  62
  -93.0181213834000       3.160198593435937E-002 !
 C          2.8551547462       -4.6527986103       -0.3033076278
 C          1.5628817162       -4.6418919643       -0.7369061940
 B          0.6910799279       -3.4220102957       -0.4166692885
 C          1.4291275539       -2.1946055095        0.1697720732
 C          0.7182844193       -0.9601112327        0.2685306917
 C         -0.6733806951       -0.9646338235        0.2875953825
 C         -1.3712905347        0.2857846398        0.3993152336
 C         -2.6756064104        0.4835954044       -0.0069834791
 C         -3.3983518679        1.6469222955        0.2903403752
 C         -4.7477475389        1.8739800531       -0.1761472895
 C         -5.2668708077        3.1746370580       -0.2610058254
 C         -6.5534766374        3.4023086839       -0.7009728232
 C         -7.3675108070        2.3429309488       -1.0714945661
 C         -6.8716555653        1.0501207605       -0.9974927482
 C         -5.5854304965        0.8160682218       -0.5594082423
 C         -2.7339025868        2.5622650483        1.1555529267
 C         -1.4281328299        2.4083569910        1.4630620911
 N         -0.6681139765        1.3725580299        0.9451873353
 C          0.6954475324        1.4550525092        0.7967558803
 C          1.3985757667        2.6474069289        1.0102119732
 C          2.7350265356        2.7454350314        0.6871504767
 C          3.4134685614        1.6812847666        0.0958581233
 C          4.8096028912        1.8112067710       -0.3290776562
 C          5.2873614542        3.0129530624       -0.8526626244
 C          6.6036431318        3.1363696270       -1.2538281639
 C          7.4720017113        2.0633066363       -1.1394389096
 C          7.0109846006        0.8642729522       -0.6215850258
 C          5.6944960479        0.7378893718       -0.2217347879
 C          2.7219972898        0.4812519301       -0.0770476423
 C          1.4038774102        0.3243675191        0.3285041581
 C         -1.4375060187       -2.2082543634        0.2429022417
 C         -2.7364100993       -2.2834612059        0.7505907624
 C         -3.4994940039       -3.4274282083        0.5947198713
 C         -2.9753620940       -4.5255757828       -0.0681777372
 C         -1.6539688210       -4.5013483644       -0.4746370749
 C         -0.8448239331       -3.3767279923       -0.2951341163
 C          2.7300490921       -2.3835046091        0.6412300039
 C          3.4078029798       -3.5650166649        0.4112155616
 H          3.4952774179       -5.5104521267       -0.4721176447
 H          1.2005093064       -5.5249832965       -1.2481621864
 H         -3.1348070448       -0.2933018905       -0.5944964118
 H         -4.6405411023        4.0162788048       -0.0049591844
 H         -6.9265407674        4.4148036156       -0.7619046992
 H         -8.3753397783        2.5224603368       -1.4142170317
 H         -7.4991121036        0.2167273662       -1.2801523778
 H         -5.2344289108       -0.2023747280       -0.4874942631
 H         -3.2808816291        3.3764172911        1.6027793264
 H         -0.9243669133        3.0770223148        2.1409316355
 H          0.8960913821        3.5213325914        1.3908382304
 H          3.2532117633        3.6729834834        0.8787981921
 H          4.6133025848        3.8491865893       -0.9674895045
 H          6.9540914000        4.0732132759       -1.6622026741
 H          8.5007635217        2.1606792129       -1.4527466667
 H          7.6832908790        0.0238523653       -0.5261853342
 H          5.3526934674       -0.1968938838        0.1976197001
 H          3.2127702698       -0.3362155217       -0.5793474230
 H         -3.1475631374       -1.4548720541        1.3079459832
 H         -4.5016560160       -3.4609532425        0.9970840604
 H         -3.5778015694       -5.4096364894       -0.2168824911
 H         -1.2214433088       -5.3838218549       -0.9228763814
 H          3.2193314080       -1.6148018620        1.2260983164
 H          4.4195435887       -3.6641865394        0.7819798363
  62
  -93.0179921773000       2.756356346247548E-002 !
 C          2.8321394123       -4.6370956601       -0.2185414442
 C          1.5447505177       -4.6221234002       -0.6674641831
 B          0.6795107516       -3.3918811874       -0.3705633551
 C          1.4210274955       -2.1596847759        0.2012555114
 C          0.7173778935       -0.9172758835        0.2656723097
 C         -0.6741135428       -0.9144061748        0.2819174953
 C         -1.3686981562        0.3412964021        0.3435480558
 C         -2.6794469241        0.5235630691       -0.0484781493
 C         -3.4097146109        1.6852566716        0.2391762732
 C         -4.7814012377        1.8538477622       -0.1871722329
 C         -5.2665146411        1.1956968976       -1.3274931245
 C         -6.5767852518        1.3411770763       -1.7310884423
 C         -7.4491653458        2.1459990512       -1.0141152899
 C         -6.9875823919        2.8074740850        0.1136419023
 C         -5.6776061489        2.6674461468        0.5210003264
 C         -2.7300534689        2.6375330846        1.0489348988
 C         -1.4116914011        2.5096089939        1.3134710418
 N         -0.6593709770        1.4515103421        0.8327416750
 C          0.7047247186        1.5214519484        0.6812813354
 C          1.4113143234        2.7215006929        0.8323965253
 C          2.7573941761        2.7909593396        0.5428570361
 C          3.4398801663        1.6898617945        0.0305375683
 C          4.8536487019        1.7769209191       -0.3450363542
 C          5.3420149455        1.0952824722       -1.4599512104
 C          6.6768813756        1.1759195791       -1.8076439154
 C          7.5525020178        1.9340062148       -1.0475004824
 C          7.0807078033        2.6136090996        0.0637340966
 C          5.7454422016        2.5380476466        0.4108223832
 C          2.7380301221        0.4917717658       -0.1088297363
 C          1.4113183975        0.3642018688        0.2780713021
 C         -1.4409465300       -2.1583786508        0.2748011262
 C         -2.7336669369       -2.2227758892        0.7986937042
 C         -3.5001785754       -3.3681511451        0.6706277037
 C         -2.9854740290       -4.4784416499        0.0206730047
 C         -1.6678442263       -4.4645930331       -0.3979461042
 C         -0.8552685352       -3.3381395563       -0.2461856862
 C          2.7129139227       -2.3533201155        0.6935821222
 C          3.3839015038       -3.5442344204        0.4878965946
 H          3.4681001947       -5.5010320109       -0.3703979883
 H          1.1816979016       -5.5080629334       -1.1733894524
 H         -3.1656029038       -0.2899355957       -0.5601088704
 H         -4.5985062040        0.5835897976       -1.9150050750
 H         -6.9236289198        0.8265634759       -2.6159691445
 H         -8.4752166758        2.2575345356       -1.3309282585
 H         -7.6597372002        3.4337311332        0.6829286788
 H         -5.3524006100        3.1715942797        1.4186589939
 H         -3.2517628651        3.4962242356        1.4378517192
 H         -0.8890738610        3.2277495671        1.9220666708
 H          0.9043178879        3.6240747802        1.1315422469
 H          3.2682815995        3.7356925206        0.6536847459
 H          4.6637905423        0.5171234670       -2.0706546071
 H          7.0369845276        0.6463191969       -2.6778928031
 H          8.5962248982        1.9930064782       -1.3179513838
 H          7.7584780683        3.2031451837        0.6641032902
 H          5.3916056178        3.0544517336        1.2913502945
 H          3.2459377454       -0.3634742910       -0.5222723853
 H         -3.1381485849       -1.3851717741        1.3470101630
 H         -4.4984301922       -3.3916615426        1.0828803206
 H         -3.5917602928       -5.3630569250       -0.1081020736
 H         -1.2406863165       -5.3552993653       -0.8349540898
 H          3.2053209491       -1.5819902379        1.2721879559
 H          4.3918105191       -3.6423952643        0.8688003790
  62
  -93.0179843272000       2.733554310970138E-002 !
 C          2.8372515010       -4.6384354653       -0.3171277251
 C          1.5433982912       -4.6228394674       -0.7458689706
 B          0.6751220000       -3.4031071854       -0.4153765197
 C          1.4175374366       -2.1807560027        0.1753379186
 C          0.7111800939       -0.9434773872        0.2747113721
 C         -0.6803276897       -0.9425810081        0.2952476968
 C         -1.3714589996        0.3134747366        0.3955191845
 C         -2.6727865296        0.5175055528       -0.0131429380
 C         -3.3973104045        1.6795990797        0.2919612243
 C         -4.7487243344        1.8853725614       -0.1787468379
 C         -5.2015781536        1.2642207434       -1.3531568479
 C         -6.4905966216        1.4482755605       -1.8059010732
 C         -7.3738681471        2.2563673763       -1.1060944690
 C         -6.9442431892        2.8821447906        0.0545740696
 C         -5.6554655651        2.7034162097        0.5113746716
 C         -2.7295258026        2.5931834804        1.1544845171
 C         -1.4184329046        2.4437301014        1.4437994450
 N         -0.6631758439        1.4010913333        0.9342956392
 C          0.7012971935        1.4770514162        0.7839760480
 C          1.4112164981        2.6676005032        0.9847485724
 C          2.7499313703        2.7535882457        0.6664772602
 C          3.4238748865        1.6774381543        0.0929092982
 C          4.8264904234        1.7860422713       -0.3170632334
 C          5.6997892124        0.7087619640       -0.1648355491
 C          7.0230807448        0.8123576391       -0.5481446179
 C          7.5013054661        1.9915258597       -1.0953318891
 C          6.6441517209        3.0678413991       -1.2547196596
 C          5.3213436162        2.9679411449       -0.8683310630
 C          2.7241122971        0.4818963996       -0.0741505707
 C          1.4032822394        0.3376434844        0.3274249967
 C         -1.4482789597       -2.1839664711        0.2523853127
 C         -2.7460794825       -2.2568401306        0.7631272486
 C         -3.5123414586       -3.3988071980        0.6065685826
 C         -2.9928605313       -4.4969152840       -0.0598961580
 C         -1.6723550909       -4.4752395743       -0.4698070019
 C         -0.8601149915       -3.3530021571       -0.2899340771
 C          2.7179253159       -2.3762438134        0.6453193033
 C          3.3934197259       -3.5569225815        0.4042946272
 H          3.4757570578       -5.4956061625       -0.4944367347
 H          1.1778600507       -5.5017810645       -1.2621152922
 H         -3.1562114081       -0.2769807532       -0.5564553219
 H         -4.5235738844        0.6523813303       -1.9289626159
 H         -6.8117991149        0.9614591971       -2.7160880809
 H         -8.3831935191        2.3980678299       -1.4620508569
 H         -7.6246395604        3.5121684411        0.6095291442
 H         -5.3557142634        3.1827775328        1.4312774515
 H         -3.2536178042        3.4394333740        1.5668499630
 H         -0.9038447237        3.1319563158        2.0927360537
 H          0.9137595146        3.5497218353        1.3528148649
 H          3.2737355107        3.6799532873        0.8487060214
 H          5.3428980199       -0.2096959084        0.2773908932
 H          7.6868943122       -0.0300307422       -0.4168649589
 H          8.5353536836        2.0706567270       -1.3962482876
 H          7.0085454465        3.9887571316       -1.6867085227
 H          4.6552219935        3.8053443042       -1.0168798611
 H          3.2119088067       -0.3424238097       -0.5680095227
 H         -3.1548720441       -1.4290987354        1.3231252803
 H         -4.5141819493       -3.4293437099        1.0095932826
 H         -3.5980720817       -5.3789995935       -0.2096640000
 H         -1.2427738075       -5.3571496149       -0.9220260620
 H          3.2095887390       -1.6130348821        1.2354415370
 H          4.4058274214       -3.6604874130        0.7720139442
  62
  -93.0177487845000       2.130491358213913E-002 !
 C          2.8366806397       -4.6309465474       -0.1823298354
 C          1.5697824021       -4.6056687738       -0.6863746478
 B          0.6961238638       -3.3754667490       -0.4151722591
 C          1.4160950796       -2.1566966182        0.2086725746
 C          0.7143848376       -0.9131479315        0.2637770546
 C         -0.6779212404       -0.9048900536        0.2414555246
 C         -1.3684014220        0.3513147970        0.3179625593
 C         -2.6805884396        0.5465370072       -0.0672808299
 C         -3.4115040718        1.6984439834        0.2535367512
 C         -4.7929746308        1.8653008516       -0.1401741810
 C         -5.3108700375        1.1997851551       -1.2621109054
 C         -6.6335924737        1.3373190251       -1.6257809430
 C         -7.4875076605        2.1426675528       -0.8874053574
 C         -6.9938238830        2.8130098436        0.2212733720
 C         -5.6717094958        2.6798509473        0.5894519271
 C         -2.7232739049        2.6392344602        1.0719081927
 C         -1.4027278936        2.5076233631        1.3196256673
 N         -0.6564948236        1.4540004602        0.8229590126
 C          0.7089614476        1.5262179903        0.6683516678
 C          1.4090986421        2.7319621252        0.7936877743
 C          2.7570634310        2.7994641355        0.5077439352
 C          3.4489067236        1.6823069025        0.0483484108
 C          4.8709170971        1.7551348963       -0.3013080942
 C          5.7368096957        0.7143587973        0.0332005673
 C          7.0793903684        0.7833726397       -0.2854093845
 C          7.5817339804        1.8884243644       -0.9523863660
 C          6.7308039103        2.9263323183       -1.2949419650
 C          5.3892373645        2.8634120743       -0.9694789942
 C          2.7532483370        0.4786153824       -0.0653480721
 C          1.4169449621        0.3623048235        0.2936770696
 C         -1.4438154499       -2.1490024691        0.1779870696
 C         -2.7517052012       -2.2318550530        0.6596812797
 C         -3.5184194117       -3.3665020786        0.4558011616
 C         -2.9866356453       -4.4504092088       -0.2237771524
 C         -1.6531956117       -4.4280052605       -0.5888536462
 C         -0.8423615808       -3.3131657663       -0.3617681443
 C          2.6859554113       -2.3586969854        0.7507236703
 C          3.3622542023       -3.5489840573        0.5595470121
 H          3.4746133819       -5.4964830558       -0.3151788480
 H          1.2259665661       -5.4856135878       -1.2156429390
 H         -3.1666740768       -0.2517395144       -0.6018186404
 H         -4.6602894066        0.5867071941       -1.8677636932
 H         -7.0050996481        0.8156411767       -2.4964133627
 H         -8.5235923678        2.2467546233       -1.1721549754
 H         -7.6502988582        3.4405466811        0.8072934885
 H         -5.3237878645        3.1899750615        1.4749127543
 H         -3.2401119846        3.4915580646        1.4803066721
 H         -0.8722177235        3.2167170748        1.9325925296
 H          0.8974312299        3.6377484343        1.0749697594
 H          3.2744491063        3.7396280730        0.6277539380
 H          5.3560914777       -0.1446318549        0.5660460765
 H          7.7384623141       -0.0279939029       -0.0118652831
 H          8.6305787253        1.9404324942       -1.2036418883
 H          7.1159192438        3.7890602183       -1.8189646052
 H          4.7289063689        3.6705277130       -1.2521373891
 H          3.2605913947       -0.3752891498       -0.4835283535
 H         -3.1695342141       -1.4199533218        1.2357766726
 H         -4.5304684601       -3.4016061914        0.8320059756
 H         -3.5921535148       -5.3244524896       -0.4137660269
 H         -1.2127799503       -5.3031715332       -1.0437297868
 H          3.1515170882       -1.5937424924        1.3596787020
 H          4.3517911735       -3.6578239562        0.9835528412
  62
  -93.0175845690000       1.790653510209243E-002 !
 C          2.8696842960       -4.6947370855       -0.2968537416
 C          1.5591226201       -4.7060046487       -0.6692948839
 B          0.6824264235       -3.4990537307       -0.3139114928
 C          1.4249395813       -2.2642990251        0.2507619686
 C          0.7039747377       -1.0408034297        0.3807411336
 C         -0.6878772776       -1.0527627008        0.4143076682
 C         -1.3815376948        0.2003575761        0.5533220042
 C         -2.6569552597        0.4419622368        0.0914085776
 C         -3.3510514003        1.6301090794        0.3701953974
 C         -4.6163567327        1.9639455694       -0.2412993971
 C         -5.4474850826        0.9903616755       -0.8156715173
 C         -6.6313641688        1.3383003081       -1.4307941363
 C         -7.0303267774        2.6647691532       -1.4954292295
 C         -6.2255935418        3.6414990168       -0.9289073577
 C         -5.0407535618        3.3000407073       -0.3126900063
 C         -2.7262716815        2.4760974918        1.3311205792
 C         -1.4469258592        2.2706691361        1.7114853234
 N         -0.6811128951        1.2530025951        1.1649351439
 C          0.6788141578        1.3508175888        1.0000807801
 C          1.3788539960        2.5372020419        1.2510268224
 C          2.6912293496        2.6734200969        0.8535042000
 C          3.3432576786        1.6547081389        0.1593977284
 C          4.6845394541        1.8497551360       -0.3966586674
 C          5.6086805473        0.8057760003       -0.4392961822
 C          6.8616083998        0.9940340197       -0.9908865886
 C          7.2175633704        2.2264632395       -1.5132405064
 C          6.3100171541        3.2722615003       -1.4755494954
 C          5.0577199726        3.0870852368       -0.9225019383
 C          2.6693780572        0.4451848825       -0.0130650678
 C          1.3788882811        0.2493727206        0.4574723478
 C         -1.4535187812       -2.2917697215        0.3459437501
 C         -2.7661509712       -2.3606420839        0.8204944674
 C         -3.5262962204       -3.5049911417        0.6560414435
 C         -2.9868917592       -4.6103029349        0.0176099893
 C         -1.6584785690       -4.5874983138       -0.3664628114
 C         -0.8533612455       -3.4614036253       -0.1814521619
 C          2.7509884094       -2.4305897612        0.6604467887
 C          3.4371358400       -3.5981871690        0.3942642397
 H          3.5161262333       -5.5409856705       -0.4968513892
 H          1.1883901814       -5.5961161186       -1.1622571883
 H         -3.1096534548       -0.3101853583       -0.5323388561
 H         -5.1732323251       -0.0524256569       -0.7617565742
 H         -7.2539867652        0.5682836002       -1.8639779284
 H         -7.9556015986        2.9339940062       -1.9820861173
 H         -6.5228463302        4.6794612687       -0.9777875820
 H         -4.4141064844        4.0807310297        0.0918741350
 H         -3.2843438161        3.2764165601        1.7897441659
 H         -0.9666786793        2.8822305752        2.4576860270
 H          0.8856111174        3.3785854022        1.7094424242
 H          3.2085105150        3.5981465133        1.0606221441
 H          5.3492674504       -0.1557605577       -0.0211881582
 H          7.5658641654        0.1749709383       -1.0136537047
 H          8.1951272530        2.3708724685       -1.9484619333
 H          6.5778325787        4.2352649421       -1.8857053649
 H          4.3479722857        3.9013917427       -0.9216902393
 H          3.1437774297       -0.3436168703       -0.5739629586
 H         -3.1908696160       -1.5262620170        1.3585839646
 H         -4.5383202195       -3.5340469370        1.0334026332
 H         -3.5854160530       -5.4965681878       -0.1340299712
 H         -1.2185509595       -5.4718036015       -0.8037307002
 H          3.2550150133       -1.6530940477        1.2206423468
 H          4.4667763202       -3.6812239950        0.7166101997
