  49
  -72.7678096277000       0.426952990929500      !
 O          4.1636705205       -0.6271683438       -0.7440197361
 B          2.8028722090       -0.5783509789       -0.9005171880
 O          2.0779605184       -1.6669604212       -0.5097546981
 C          2.0124520135        0.6174105708       -1.4762426928
 C          2.5957839646        1.7895112129       -1.9822851675
 C          1.8797266761        2.6459115366       -2.7797315698
 C          0.5034567686        2.3874644661       -3.0745051382
 C         -0.1307249868        1.3303283815       -2.4936160074
 C          0.5665277821        0.5699678415       -1.5337987071
 Si        -0.3544179637        0.0130406535        0.0188767955
 C          0.8242964531       -0.0624626887        1.4914544119
 C          1.7782453310        0.9348924173        1.6670466354
 C          2.6877339746        0.8768877875        2.7083024788
 C          2.6564419466       -0.1852901056        3.5952445648
 C          1.7110761270       -1.1850395373        3.4345480005
 C          0.8062224594       -1.1222992967        2.3899604374
 C         -1.7939240510        1.1572951602        0.4617894007
 C         -1.6735933294        2.1522834014        1.4331194080
 C         -2.7158976973        3.0160261474        1.7064299678
 C         -3.9103433154        2.9093780433        1.0101258576
 C         -4.0500607228        1.9279364666        0.0416352438
 C         -3.0052505094        1.0655948841       -0.2265814771
 C         -1.1389400179       -1.6732722427       -0.4218564591
 C         -2.1355548222       -2.1664458583        0.4116383734
 C         -2.7293942588       -3.3895088911        0.1541652922
 C         -2.3394678234       -4.1300838177       -0.9490675059
 C         -1.3530340089       -3.6425676031       -1.7893148654
 C         -0.7573468578       -2.4206335893       -1.5272529303
 H          4.6396419908        0.1510273661       -1.0255339890
 H          2.6102079817       -2.3631079289       -0.1259168443
 H          3.6583278445        1.9533594305       -1.8433182939
 H          2.3728467846        3.4708909163       -3.2710727306
 H         -0.0242009681        3.0374374941       -3.7554371634
 H         -1.1825676833        1.1557796932       -2.6653037496
 H          1.8069115265        1.7662149227        0.9769425659
 H          3.4231527386        1.6599968028        2.8286619868
 H          3.3669334821       -0.2352850145        4.4079172171
 H          1.6833444212       -2.0173178573        4.1240128417
 H          0.0791327056       -1.9114939511        2.2631557562
 H         -0.7486580068        2.2375110085        1.9857559994
 H         -2.6020738216        3.7757014002        2.4669785074
 H         -4.7271739750        3.5832757393        1.2238861450
 H         -4.9794704946        1.8357552991       -0.5028645897
 H         -3.1281697255        0.2953632877       -0.9754001717
 H         -2.4521668880       -1.5860541253        1.2662245024
 H         -3.5001703061       -3.7626577967        0.8137921856
 H         -2.8060642324       -5.0830644960       -1.1537593889
 H         -1.0468820695       -4.2160285672       -2.6527408631
 H          0.0179840466       -2.0457582885       -2.1771815818
  49
  -72.7671682983000       0.216593527727507      !
 O          4.2525092055        0.1406957967       -0.4156583727
 B          2.9752327630       -0.2207634009       -0.7528604175
 O          2.6019480187       -1.5070057816       -0.5050013799
 C          1.9414534372        0.7279402033       -1.4193065148
 C          2.2664069864        1.9704750832       -1.9691337019
 C          1.4240977785        2.5935426290       -2.8655405111
 C          0.2045851520        1.9709951049       -3.2620093801
 C         -0.1974946230        0.8194538635       -2.6607016434
 C          0.5533661037        0.3480644286       -1.5516034564
 Si        -0.4234648399       -0.0583626619        0.0239030952
 C          0.8006796547       -0.2009926899        1.4523376552
 C          1.6657985959        0.8508408147        1.7348181952
 C          2.6031136186        0.7502821652        2.7473060654
 C          2.6917798151       -0.4130766915        3.4927340062
 C          1.8356749824       -1.4680023012        3.2237817069
 C          0.8987269826       -1.3597659691        2.2113238200
 C         -1.7496929626        1.2096815971        0.4798729936
 C         -1.6619118220        1.9871271372        1.6364290597
 C         -2.6006990680        2.9601264434        1.9187371119
 C         -3.6551931803        3.1858783089        1.0476870821
 C         -3.7597472175        2.4259951516       -0.1067686637
 C         -2.8185819359        1.4548949932       -0.3855488717
 C         -1.2447279036       -1.7239388699       -0.4017679430
 C         -2.5774557017       -1.9648241247       -0.0897115965
 C         -3.1541207324       -3.1940292728       -0.3574103259
 C         -2.4036225645       -4.1997800557       -0.9433435562
 C         -1.0731311110       -3.9722986824       -1.2539382667
 C         -0.4980087936       -2.7423171562       -0.9870808092
 H          4.4878716749        1.0489276423       -0.5930448956
 H          3.2877673416       -2.0162519659       -0.0726225992
 H          3.2525422510        2.3871995478       -1.7964988128
 H          1.7445199112        3.4896790771       -3.3746408826
 H         -0.3744650639        2.4044077494       -4.0637018418
 H         -1.1201489734        0.3328228454       -2.9393384849
 H          1.5988011505        1.7603549427        1.1541522273
 H          3.2672848298        1.5773545910        2.9550939919
 H          3.4267896055       -0.4977086833        4.2803633877
 H          1.9018765194       -2.3782618120        3.8030807861
 H          0.2375002864       -2.1880456682        2.0008101952
 H         -0.8496225271        1.8129220284        2.3276119727
 H         -2.5142902834        3.5451618502        2.8236013686
 H         -4.3904303435        3.9460528645        1.2676554943
 H         -4.5801100599        2.5939268111       -0.7905143614
 H         -2.9127057474        0.8675983495       -1.2873653656
 H         -3.1664178413       -1.1854491301        0.3711482773
 H         -4.1914895272       -3.3671977783       -0.1080897973
 H         -2.8552852810       -5.1581050632       -1.1563807446
 H         -0.4831093820       -4.7556553799       -1.7079275931
 H          0.5403788357       -2.5638233209       -1.2224814617
  49
  -72.7664550930000       0.101830766511359      !
 O         -1.5755438288        1.6881889947       -2.3991040345
 B         -0.5412937123        1.0226609625       -2.9973498230
 O         -0.7053231007        0.6567115739       -4.2981939373
 C          0.7997045961        0.6642666581       -2.2946493762
 C          1.8416405613        0.0882054736       -3.0281062256
 C          3.1400818654        0.1363067290       -2.5692202724
 C          3.4466810251        0.7787758811       -1.3340080054
 C          2.4449602508        1.2294578465       -0.5351504242
 C          1.1030427956        0.9046531255       -0.8992668242
 Si         0.0752355077       -0.0234263930        0.4042077244
 C          1.0362176346       -0.0697880305        2.0307905007
 C          2.2700781660       -0.7119348837        2.0993745064
 C          2.9888370105       -0.7553791092        3.2793335411
 C          2.4861671864       -0.1493568573        4.4192587635
 C          1.2627528750        0.4966855733        4.3680910803
 C          0.5473816720        0.5337518125        3.1845412748
 C         -1.4656753356        1.0803235145        0.6330954121
 C         -2.7403115781        0.5274295392        0.6761842367
 C         -3.8526808012        1.3257251920        0.8760140562
 C         -3.7071611447        2.6936191464        1.0372264780
 C         -2.4437290143        3.2595666779        1.0012637936
 C         -1.3339484920        2.4583684160        0.7971235019
 C         -0.4289146267       -1.7594338351       -0.1244802334
 C         -1.1724816359       -1.9430071215       -1.2921807374
 C         -1.4904470595       -3.2098674837       -1.7427678920
 C         -1.0748685528       -4.3259219291       -1.0350483904
 C         -0.3369425442       -4.1626864818        0.1273976758
 C         -0.0153398084       -2.8955465389        0.5727695839
 H         -1.4504661918        1.9545629206       -1.4878749680
 H         -1.5562428194        0.9180386229       -4.6511655789
 H          1.6238421572       -0.2527487784       -4.0294504847
 H          3.9497087545       -0.1803365728       -3.2088777728
 H          4.4790484500        0.9331771017       -1.0565385927
 H          2.6524276234        1.6972841444        0.4158153878
 H          2.6712235502       -1.1770736372        1.2098418151
 H          3.9435380478       -1.2606405963        3.3124932497
 H          3.0460268551       -0.1808252431        5.3428691882
 H          0.8647622051        0.9711338102        5.2538817570
 H         -0.4090231386        1.0362572071        3.1545034519
 H         -2.8583669629       -0.5384599556        0.5520639627
 H         -4.8361887909        0.8798403760        0.9064693081
 H         -4.5756896037        3.3169531505        1.1912002029
 H         -2.3231637341        4.3250611511        1.1323886963
 H         -0.3490905199        2.9042949717        0.7674691059
 H         -1.5010682830       -1.0808719259       -1.8526049375
 H         -2.0636076894       -3.3292361166       -2.6508629562
 H         -1.3233775562       -5.3169595673       -1.3861604558
 H         -0.0108881026       -5.0290454619        0.6861324233
 H          0.5577828750       -2.7778251978        1.4818312651
  49
  -72.7661080611000       7.053329847474529E-002 !
 O          4.3294350761       -0.0291544732       -0.5947171986
 B          2.9988179950       -0.2866717121       -0.8111020770
 O          2.5364498519       -1.5126852135       -0.4221425236
 C          2.0074054067        0.7071657139       -1.4547316525
 C          2.3817576317        1.9446134535       -1.9957017700
 C          1.5629911523        2.6185459207       -2.8708147494
 C          0.2908851083        2.0743784915       -3.2432913944
 C         -0.1663215001        0.9495988740       -2.6332789164
 C          0.5866565429        0.4151536919       -1.5553712933
 Si        -0.3643983082       -0.0409514757        0.0035299659
 C          0.7810251519       -0.1992081884        1.4961161196
 C          0.7463208671       -1.3030034358        2.3400650168
 C          1.6132540907       -1.4044515381        3.4132022657
 C          2.5330661576       -0.3987604037        3.6599671208
 C          2.5732434012        0.7115800928        2.8338927758
 C          1.7018699158        0.8087648914        1.7644505997
 C         -1.7231831028        1.1859920518        0.5242082275
 C         -1.6967759455        2.5108613907        0.0984973262
 C         -2.6794936648        3.4052350175        0.4839499551
 C         -3.7131052453        2.9884978933        1.3048680804
 C         -3.7555971347        1.6733980728        1.7386672464
 C         -2.7692200486        0.7855157521        1.3519666989
 C         -1.2081665297       -1.6681644824       -0.5217936535
 C         -2.5476362381       -1.6924432960       -0.8905677660
 C         -3.1604262059       -2.8815109429       -1.2457876398
 C         -2.4368796398       -4.0619896744       -1.2439667239
 C         -1.0960881320       -4.0456113327       -0.8969262008
 C         -0.4838737539       -2.8544732075       -0.5489254740
 H          4.6324707489        0.8316477467       -0.8748993411
 H          3.2229208222       -2.0444707278       -0.0183096288
 H          3.3881562901        2.3129356567       -1.8281244447
 H          1.9215507459        3.5010390316       -3.3784719507
 H         -0.2830395756        2.5558134118       -4.0203971928
 H         -1.1387389009        0.5411140113       -2.8678095605
 H          0.0338138662       -2.0931549288        2.1517587331
 H          1.5748657359       -2.2708495880        4.0585994727
 H          3.2148738361       -0.4800044407        4.4943320127
 H          3.2862972084        1.5009280124        3.0244927615
 H          1.7354351903        1.6774009948        1.1227912615
 H         -0.8960220632        2.8408962260       -0.5474667346
 H         -2.6398887422        4.4299379022        0.1426176912
 H         -4.4823309280        3.6844712948        1.6067404983
 H         -4.5586345390        1.3425520580        2.3817881028
 H         -2.8057007746       -0.2378420531        1.6979601200
 H         -3.1187461622       -0.7753306923       -0.8920300354
 H         -4.2043694487       -2.8860150080       -1.5251651365
 H         -2.9147381967       -4.9905590129       -1.5214423412
 H         -0.5251907686       -4.9631560564       -0.9039631170
 H          0.5665594605       -2.8331190704       -0.3048331651
  49
  -72.7659231691000       5.799942846680930E-002 !
 O          3.9177454601       -1.2566996466       -1.5859940955
 B          2.6246712332       -0.8829694043       -1.3120699029
 O          1.8310382703       -1.7795249995       -0.6528689633
 C          2.0090614031        0.4888906855       -1.6437689911
 C          2.7368036757        1.5526539036       -2.2293712534
 C          2.0892802551        2.5547934258       -2.8894907179
 C          0.6543278234        2.6009081897       -2.9249422119
 C         -0.0746242634        1.6762104250       -2.2288573361
 C          0.5958942098        0.7409264453       -1.4333713158
 Si        -0.2712055159        0.0720274014        0.0978137711
 C          0.7790728385        0.0559018158        1.6692321378
 C          2.1088253370        0.4593847686        1.6728809465
 C          2.8557038821        0.4592011172        2.8367586560
 C          2.2779624825        0.0597630879        4.0308184626
 C          0.9481607091       -0.3248433648        4.0513141956
 C          0.2077949483       -0.3208889375        2.8829736396
 C         -1.7860955918        1.1413972603        0.5037095476
 C         -1.6672995166        2.2569545750        1.3321342642
 C         -2.7505905358        3.0710510996        1.5998513998
 C         -3.9864102601        2.7903291064        1.0372984159
 C         -4.1259518349        1.6864926197        0.2127429603
 C         -3.0380713698        0.8737899686       -0.0476469022
 C         -0.9513412228       -1.6445178482       -0.4205272478
 C         -0.9595634043       -2.7000431666        0.4805943722
 C         -1.4957171361       -3.9258617965        0.1260364231
 C         -2.0255892113       -4.1138014759       -1.1389126583
 C         -2.0114038807       -3.0707747336       -2.0489724870
 C         -1.4725619095       -1.8468906768       -1.6917091302
 H          4.4392255129       -0.6137929804       -2.0617894740
 H          2.2710343272       -2.6039220584       -0.4484562074
 H          3.8187492907        1.4972111250       -2.2622386540
 H          2.6477804074        3.2917608067       -3.4468460500
 H          0.1616457305        3.3992915564       -3.4570400933
 H         -1.1502152718        1.7640828137       -2.1725822585
 H          2.5610555246        0.7764556692        0.7438121921
 H          3.8892735658        0.7745388951        2.8160661641
 H          2.8591313574        0.0564007799        4.9417532692
 H          0.4870077127       -0.6256843261        4.9815710650
 H         -0.8348344576       -0.6052312457        2.9116576129
 H         -0.7063414784        2.4819143432        1.7732974129
 H         -2.6354773209        3.9288416878        2.2473010775
 H         -4.8349139767        3.4267292568        1.2428174824
 H         -5.0872219386        1.4586644363       -0.2264327368
 H         -3.1606678786        0.0084968717       -0.6836764016
 H         -0.5387959965       -2.5661075820        1.4653633513
 H         -1.4978865587       -4.7376998915        0.8399024780
 H         -2.4413852732       -5.0717141025       -1.4165383404
 H         -2.4172049815       -3.2117124311       -3.0408174814
 H         -1.4512752969       -1.0428890718       -2.4129480498
  49
  -72.7657755164000       4.960977202693666E-002 !
 O          4.3287860889        0.0257267410       -0.4894357869
 B          3.0159792329       -0.2621131988       -0.7667171347
 O          2.5758496853       -1.5125689568       -0.4355878574
 C          2.0246229987        0.7263695383       -1.4220838121
 C          2.3994244992        1.9650477392       -1.9568760235
 C          1.5952480684        2.6244827249       -2.8579234790
 C          0.3448139102        2.0570103909       -3.2680487576
 C         -0.1162514729        0.9307720960       -2.6642173258
 C          0.6073749770        0.4236672541       -1.5508215245
 Si        -0.3776905586       -0.0182933504       -0.0118121616
 C          0.7747573504       -0.2029242882        1.4734754382
 C          0.7812603514       -1.3460189802        2.2628280533
 C          1.6688365429       -1.4767655363        3.3163252127
 C          2.5690211205       -0.4621947213        3.5953351715
 C          2.5684864333        0.6871264701        2.8231278347
 C          1.6762457568        0.8132753853        1.7740936984
 C         -1.7439936207        1.2017311198        0.5095516088
 C         -1.9038333578        2.4330334041       -0.1174019493
 C         -2.9026623190        3.3085269241        0.2714165661
 C         -3.7633045240        2.9664134644        1.3000566930
 C         -3.6162019927        1.7462870514        1.9390739142
 C         -2.6154064151        0.8768264023        1.5464890835
 C         -1.2298206413       -1.6491193629       -0.5154735604
 C         -2.6067145871       -1.7202775901       -0.6883206481
 C         -3.2145637647       -2.9168988773       -1.0265556994
 C         -2.4500793252       -4.0577636396       -1.2029361127
 C         -1.0753152094       -3.9951377075       -1.0456963187
 C         -0.4689662348       -2.7968645816       -0.7125656586
 H          4.6170961242        0.9044273384       -0.7260601371
 H          3.2586062133       -2.0355677153       -0.0145290666
 H          3.3986983120        2.3438936055       -1.7706696005
 H          1.9571415989        3.5077157241       -3.3618220431
 H         -0.2077527132        2.5215919765       -4.0708739739
 H         -1.0721201721        0.5020850104       -2.9292182687
 H          0.0881551364       -2.1459355159        2.0446547687
 H          1.6632362592       -2.3743968524        3.9187566139
 H          3.2689753690       -0.5668813471        4.4119880909
 H          3.2668348622        1.4833623173        3.0391441567
 H          1.6765414520        1.7124093360        1.1745712244
 H         -1.2363976246        2.7055556229       -0.9218581084
 H         -3.0105247172        4.2601179841       -0.2293655444
 H         -4.5450348361        3.6475364762        1.6040761658
 H         -4.2838026594        1.4740740169        2.7442721170
 H         -2.5051623116       -0.0738322428        2.0491111306
 H         -3.2090129227       -0.8336673039       -0.5511141034
 H         -4.2872511221       -2.9582267982       -1.1538917598
 H         -2.9244469315       -4.9914898592       -1.4692683938
 H         -0.4746192845       -4.8819227120       -1.1890585181
 H          0.6030950900       -2.7385734822       -0.6074485677
  49
  -72.7657370827000       4.763260415129166E-002 !
 O          3.8804285959       -1.2682406578       -1.8562072581
 B          2.5881634998       -0.9237575249       -1.5395629168
 O          1.7841122689       -1.8990145984       -1.0271383447
 C          2.0007388553        0.4964777023       -1.6812587100
 C          2.7598269298        1.6074360749       -2.1017567125
 C          2.1503962635        2.7164312341       -2.6209257067
 C          0.7191440247        2.7952173115       -2.6931284013
 C         -0.0435212492        1.8060809370       -2.1479769371
 C          0.5956415704        0.7692790142       -1.4403806299
 Si        -0.2602109875        0.0821056904        0.0881574141
 C          0.7512681091        0.0416270957        1.6849161086
 C          2.1418861463        0.0920073563        1.6921694614
 C          2.8535478207        0.0754279782        2.8774629142
 C          2.1849401954        0.0115802372        4.0893360687
 C          0.8004168033       -0.0267558896        4.1037747285
 C          0.0949008602       -0.0090574411        2.9152763209
 C         -1.7856047816        1.1538119416        0.4510861118
 C         -1.6431054081        2.3970280738        1.0639328446
 C         -2.7373103790        3.2023690399        1.3157492365
 C         -4.0068037562        2.7800493109        0.9534887420
 C         -4.1688711754        1.5482064051        0.3427994406
 C         -3.0685214414        0.7467181876        0.0959519999
 C         -0.9096272644       -1.6583241692       -0.3772390414
 C         -0.9049016512       -2.6755877317        0.5674637932
 C         -1.4221778959       -3.9225544502        0.2624394002
 C         -1.9465531727       -4.1687887296       -0.9950148240
 C         -1.9520618070       -3.1617403053       -1.9450922161
 C         -1.4331833994       -1.9163202984       -1.6373615697
 H          4.4147477352       -0.5714929877       -2.2316411216
 H          2.2193803468       -2.7471234903       -0.9474958654
 H          3.8405191455        1.5272420734       -2.1357901136
 H          2.7397787951        3.5048537365       -3.0637996071
 H          0.2582056661        3.6521575072       -3.1589160798
 H         -1.1202896970        1.8923705575       -2.1281964383
 H          2.6682915206        0.1481813547        0.7507934630
 H          3.9336483618        0.1140913258        2.8590253102
 H          2.7394071405       -0.0033071507        5.0166683421
 H          0.2710161992       -0.0694430483        5.0452784501
 H         -0.9857856064       -0.0354263052        2.9352597886
 H         -0.6546306596        2.7314236163        1.3463070973
 H         -2.6040236970        4.1628585822        1.7931555284
 H         -4.8644013777        3.4083236129        1.1466864106
 H         -5.1562206033        1.2109548311        0.0598412341
 H         -3.2053884879       -0.2164161241       -0.3752246371
 H         -0.4914564438       -2.4917568966        1.5481072117
 H         -1.4137747698       -4.7050420689        1.0081856322
 H         -2.3449906226       -5.1441060022       -1.2354123985
 H         -2.3577287710       -3.3484105582       -2.9294525470
 H         -1.4292804320       -1.1377816745       -2.3862378311
  49
  -72.7652631716000       2.884761171185064E-002 !
 O          2.9656265476        3.2086741184       -0.4929447509
 B          2.4555474377        1.9379629918       -0.4131542816
 O          2.7231396933        1.2273940455        0.7168196594
 C          1.5988542912        1.2717974987       -1.5202613764
 C          1.3529113644        1.8698723091       -2.7611712520
 C          0.9501089130        1.1224227513       -3.8453916852
 C          0.7778054557       -0.2886049465       -3.7247815908
 C          0.8731281796       -0.8807699496       -2.5044537688
 C          1.0180801536       -0.0454183898       -1.3640327999
 Si        -0.2025031693       -0.3074193659        0.0632300823
 C          0.8535959849       -0.7376016426        1.5902549242
 C          0.5931227975       -0.1407744702        2.8165610353
 C          1.3159503101       -0.4960433466        3.9419488113
 C          2.3127597690       -1.4528701614        3.8532342985
 C          2.5802034739       -2.0548729422        2.6350417615
 C          1.8564751885       -1.6967815094        1.5123317904
 C         -1.2909994061        1.2003435705        0.3834562626
 C         -2.6728345062        1.1762502657        0.1877584087
 C         -3.4392237258        2.3130547365        0.3566291601
 C         -2.8406879881        3.5099123755        0.7193266036
 C         -1.4700969472        3.5545157933        0.9164630502
 C         -0.7070297901        2.4141302251        0.7529984240
 C         -1.2911105150       -1.8009527658       -0.3528107101
 C         -1.3452274724       -2.9121764484        0.4817040559
 C         -2.1388516890       -4.0021097815        0.1708599027
 C         -2.8985805643       -3.9996808853       -0.9865606168
 C         -2.8583143353       -2.9008907681       -1.8293952282
 C         -2.0611753914       -1.8165621168       -1.5129799534
 H          2.7662800750        3.6873118656       -1.2948359972
 H          3.2623652575        1.7051729145        1.3472613165
 H          1.6105271904        2.9125026029       -2.9094521714
 H          0.8898067790        1.5764438564       -4.8227008259
 H          0.5992035186       -0.8794474296       -4.6106519478
 H          0.7183849560       -1.9429762834       -2.3864886721
 H         -0.1833015522        0.6064919111        2.8918798306
 H          1.1014807025       -0.0238772295        4.8904570443
 H          2.8811905801       -1.7267563495        4.7306282841
 H          3.3567978200       -2.8029619670        2.5607229101
 H          2.0738375009       -2.1635657612        0.5629205204
 H         -3.1495345213        0.2477718207       -0.0922753095
 H         -4.5085464445        2.2697664153        0.2043705755
 H         -3.4387334085        4.4004193103        0.8476119811
 H         -0.9957717435        4.4834266524        1.2004441538
 H          0.3588892718        2.4565211645        0.9139847232
 H         -0.7566101579       -2.9210773000        1.3880712589
 H         -2.1660038554       -4.8559711057        0.8330078979
 H         -3.5182344258       -4.8500799104       -1.2321284915
 H         -3.4478503631       -2.8928519300       -2.7353320765
 H         -2.0248259253       -0.9660564411       -2.1793053984
