62
 energy: -94.732519699639 gnorm: 0.000063971587 xtb: 6.7.1 (edcfbbe)
C           -5.26585547230785       -2.77036850726993       -3.16620352781337
O           -4.44062904575827       -3.37495123120599       -2.19496659886318
C           -3.37155998947957       -2.67484661866382       -1.71660897316866
C           -2.60633917582685       -3.31937249974558       -0.73698980986386
C           -1.50475553219945       -2.71269289921295       -0.19073719649532
C           -1.10653634446095       -1.41689629522429       -0.58916702468990
C            0.00141094165984       -0.73879129476338        0.00042131245557
C           -0.00178528244314        0.73760345660050       -0.00711975036170
C           -1.11390856685282        1.41109958827740        0.58036933543295
C           -1.91182307796854        0.76975921742862        1.54881110584562
C           -3.01400904654348        1.37726164386999        2.10624148958482
C           -3.38652698980588        2.65922327012736        1.70318473934453
O           -4.45986188567755        3.35461485512643        2.17889114904165
C           -5.27887329234715        2.75061096401627        3.15572616375516
C           -2.62558171498278        3.30462378584699        0.72084842268786
C           -1.52010661196694        2.70281725632395        0.17704128782819
C            1.10686279118183        1.40977707813141       -0.60211133192117
C            1.91031980489837        0.76011509208848       -1.56054548354717
C            3.01000084605411        1.36637697070331       -2.12410513696655
C            3.37406589971528        2.65601152441927       -1.73814037345603
O            4.44418899671167        3.35103861448238       -2.22151637255809
C            5.27046822212401        2.73688058218136       -3.18582258431111
C            2.60713739485712        3.31053079226844       -0.76651134731336
C            1.50448792297830        2.70953508811188       -0.21614850137565
C            1.11296558677708       -1.40625602661996        0.59575857793924
C            1.51925391262654       -2.70226079110552        0.20645881300659
C            2.62438730474234       -3.29834545058049        0.75722766083630
C            3.38501265819381       -2.64250520558410        1.73287731137469
O            4.45811005537081       -3.33278449159098        2.21649427092576
C            5.27720763478121       -2.71791415637924        3.18646009296864
C            3.01241629239390       -1.35628940164261        2.12205075203952
C            1.91047042160397       -0.75473434129776        1.55775885830169
C           -1.90849220410760       -0.77695898681879       -1.55535659306222
C           -3.00709637379557       -1.38902185420803       -2.11473341224962
H           -5.72515532201941       -1.85346324599726       -2.78420329197983
H           -6.04286590419985       -3.50123236397073       -3.38486933321275
H           -4.70823055228400       -2.54726608340656       -4.08093928976144
H           -2.91519479587655       -4.30281910052312       -0.41563335115068
H           -0.96325474283901       -3.21306715550029        0.59756935384554
H           -1.63283006354771       -0.21921002459694        1.88096702216845
H           -3.58035600235378        0.84644940922940        2.85567617718056
H           -5.73351383797497        1.82865331594999        2.78037217493826
H           -6.05984648892963        3.47793535586121        3.37210290531091
H           -4.71749202689562        2.53638344473175        4.07028850699164
H           -2.94078861932215        4.28472666164203        0.39548316098708
H           -0.98166869960451        3.20353597454588       -0.61315952526477
H            1.63779553777289       -0.23484066176144       -1.87985862110658
H            3.58102375282032        0.82862813347183       -2.86499037767709
H            4.71388444360767        2.50506682022871       -4.09903650100738
H            6.04793554276181        3.46539508386211       -3.41061236281864
H            5.72906630727299        1.82360252865886       -2.79441616084718
H            2.91555118596855        4.29714324792769       -0.45457193230651
H            0.96158476530260        3.21794005671360        0.56602734113956
H            0.98124649589560       -3.21131794118909       -0.57868624739258
H            2.93961850509799       -4.28192190080381        0.44253736565049
H            6.05784633657010       -3.44300853180222        3.41135865502845
H            5.73227598959691       -1.80053021859863        2.80055474365282
H            4.71578156793388       -2.49289648258478        4.09841116974334
H            3.57855230987233       -0.81754417717052        2.86595660257899
H            1.63134805207798        0.23767235232193        1.87935993856786
H           -1.63558657483561        0.21481661738976       -1.88410761581212
H           -3.57689139617342       -0.85878817790196       -2.86195770263679
