62
 energy: -94.797621539887 gnorm: 0.000033202276 xtb: 6.7.1 (edcfbbe)
C           -5.49080794041221       -3.74547059464363       -1.31332265004262
O           -4.48492586352329       -3.95932278094640       -0.34749535053249
C           -3.42007432732522       -3.10450560560234       -0.31192395570533
C           -2.45643519709168       -3.37160529374172        0.66245403214790
C           -1.34259272211358       -2.57063754617389        0.78222516611468
C           -1.15826069727201       -1.46810133185215       -0.05397700677072
C            0.04631142539498       -0.62994098711405        0.06717742039661
C           -0.00594503442228        0.72221779743710        0.03190497169646
C           -1.27558313929710        1.46473851103125        0.09339258859619
C           -2.26070327563618        1.13854859352801        1.02007606009691
C           -3.44286942195171        1.85246495442603        1.09640413907806
C           -3.66668243850402        2.92095192156530        0.23474421683532
O           -4.79482896954743        3.69067855484462        0.21431916548525
C           -5.83410819023931        3.39130165295558        1.12015614311511
C           -2.67899531836130        3.26389163142770       -0.69056601280594
C           -1.50186632571066        2.55204370423532       -0.75245785899105
C            1.20219710952589        1.55692033015826       -0.07013592812119
C            2.21185989892869        1.26012173192249       -0.98000794588378
C            3.33757224215917        2.05562846942387       -1.09204536935824
C            3.47805414079371        3.17905715485149       -0.28440652552360
O            4.54643964345999        4.02940370158940       -0.30126342361289
C            5.61468124008121        3.75475337606607       -1.18097619087803
C            2.46287727929974        3.49436797644475        0.62076814196385
C            1.34230012523984        2.70016158899810        0.71866459296757
C            1.30941221344056       -1.36896264585317        0.22747406030087
C            1.56636456121215       -2.50290072129991       -0.53672322134309
C            2.73671006172437       -3.22591250584507       -0.38722829759037
C            3.67958594121405       -2.83107843751239        0.55491676858962
O            4.86553852678929       -3.46535530215265        0.79322528274513
C            5.17689631122356       -4.61978360301990        0.04414573791613
C            3.42241607969382       -1.70496742961655        1.34019920598818
C            2.25911008011363       -0.98759442122485        1.17739202075164
C           -2.11833439086986       -1.21738131968378       -1.02919505929720
C           -3.23655179627418       -2.02018518117763       -1.16322107673170
H           -6.22486704733528       -4.53274022611371       -1.14862986192147
H           -5.09265493662575       -3.82658459053404       -2.32949030858548
H           -5.96833935633201       -2.76939039648385       -1.18362020695457
H           -2.60680586625448       -4.21890470251242        1.31404749041222
H           -0.60640122779460       -2.78898255188127        1.54241088676970
H           -2.09662190028578        0.31812992743784        1.70284276033679
H           -4.17748290527440        1.56892291837624        1.83365526509458
H           -6.61869052310824        4.11768807360105        0.91386072693484
H           -5.50339507114602        3.49873320248918        2.15780384639338
H           -6.22286271709211        2.38059491861454        0.96228581161459
H           -2.86173837377909        4.09847655355945       -1.35013830275904
H           -0.74674808293717        2.82911971243701       -1.47394728485991
H            2.11170503272088        0.39674350893270       -1.62085791102160
H            4.09453226544259        1.79116113657605       -1.81342871460456
H            6.34519072520286        4.54335273873671       -1.00713281012163
H            6.06933766102058        2.78292138255990       -0.96550600337000
H            5.28987234878017        3.78449071923680       -2.22567126216678
H            2.57984186354791        4.37269006050013        1.23708527388613
H            0.56631503107513        2.95560571171215        1.42577085955278
H            0.84177847188939       -2.82071054875130       -1.27308865459308
H            2.89908590027721       -4.09335615992645       -1.00754773378804
H            4.43998928295689       -5.41240057107362        0.20643491465429
H            5.24557210528023       -4.39593315571708       -1.02490235153340
H            6.14877633050005       -4.94971403426448        0.40788574238916
H            4.15557679618424       -1.41641973789472        2.07792474665088
H            2.07243227652157       -0.12621187551912        1.80076038092245
H           -1.98431204941808       -0.38530380496187       -1.70440628783593
H           -3.95290183520468       -1.79240695980895       -1.93679373558260
