  62
        -94.76023038
 C         -5.4866654651       -3.7275473365       -1.3200546959
 O         -4.4807116820       -3.9539547857       -0.3628484684
 C         -3.4160697461       -3.1020983119       -0.3234236055
 C         -2.4505604326       -3.3771568853        0.6466526772
 C         -1.3358409759       -2.5787027812        0.7701525452
 C         -1.1532500206       -1.4698394578       -0.0573752633
 C          0.0496944159       -0.6325002550        0.0685236245
 C         -0.0049071942        0.7197481530        0.0317209055
 C         -1.2747951291        1.4588783336        0.0946580982
 C         -2.2673412250        1.1171017423        1.0073867320
 C         -3.4488293725        1.8310469302        1.0865702533
 C         -3.6654180809        2.9150144054        0.2424051878
 O         -4.7902318965        3.6863925839        0.2282910208
 C         -5.8238200544        3.3844910491        1.1339759084
 C         -2.6704899781        3.2716161796       -0.6695757861
 C         -1.4939340442        2.5599509064       -0.7346437963
 C          1.2002023803        1.5557316599       -0.0737931780
 C          2.2188911051        1.2474964679       -0.9692900406
 C          3.3413658677        2.0463969648       -1.0849371560
 C          3.4701054248        3.1844057039       -0.2958425664
 O          4.5328921446        4.0382334114       -0.3181061516
 C          5.6029220299        3.7570018660       -1.1873773981
 C          2.4453221061        3.5098728134        0.5946951855
 C          1.3278371305        2.7126964293        0.6963505288
 C          1.3114894272       -1.3695428903        0.2316807317
 C          1.5587071333       -2.5163984729       -0.5156711632
 C          2.7299107679       -3.2376083914       -0.3667920449
 C          3.6840977451       -2.8271955377        0.5570601658
 O          4.8712566975       -3.4565698210        0.7910305193
 C          5.1676842111       -4.6238663985        0.0633256214
 C          3.4352866509       -1.6880332860        1.3260412222
 C          2.2707389278       -0.9732502044        1.1654457728
 C         -2.1141382945       -1.2105868256       -1.0290962837
 C         -3.2325804056       -2.0117698442       -1.1670913533
 H         -6.2243660243       -4.5129555921       -1.1634392000
 H         -5.0946590472       -3.7979225931       -2.3400672790
 H         -5.9622382148       -2.7511271938       -1.1806833579
 H         -2.6005772688       -4.2292574267        1.2909249077
 H         -0.5967801303       -2.8030106990        1.5252816975
 H         -2.1091553084        0.2850536762        1.6764739779
 H         -4.1893417664        1.5348309874        1.8128430771
 H         -6.6045809346        4.1195193700        0.9451169785
 H         -5.4875095330        3.4732808688        2.1722326715
 H         -6.2249599557        2.3794170473        0.9669105168
 H         -2.8469185383        4.1178541300       -1.3148699787
 H         -0.7319761687        2.8488249206       -1.4435062787
 H          2.1281411628        0.3727911797       -1.5951723441
 H          4.1059357980        1.7725064115       -1.7946732067
 H          6.3308599733        4.5500813795       -1.0244336111
 H          6.0632493426        2.7903969782       -0.9586337991
 H          5.2840538646        3.7687074535       -2.2347809607
 H          2.5527252071        4.3991517356        1.1957819420
 H          0.5431280668        2.9760924852        1.3902554100
 H          0.8254277018       -2.8453221402       -1.2378582422
 H          2.8839105206       -4.1154803026       -0.9745411666
 H          4.4312572297       -5.4122422670        0.2504206957
 H          5.2219094783       -4.4249933820       -1.0121085885
 H          6.1434704317       -4.9518936032        0.4177488123
 H          4.1766546343       -1.3883079195        2.0500108070
 H          2.0895750149       -0.1027904535        1.7765812398
 H         -1.9804898324       -0.3729660990       -1.6966367203
 H         -3.9505850639       -1.7765775622       -1.9369373499
