62
 energy: -94.797514464072 gnorm: 0.000065236839 xtb: 6.7.1 (edcfbbe)
C           -5.01140620019362       -4.61136377279568        0.13768224668077
O           -4.66714375733769       -3.50023947339660        0.93621829561604
C           -3.51794680327531       -2.81991780056175        0.64883284207356
C           -2.63825052544245       -3.13626955945086       -0.38005974391145
C           -1.50288466519240       -2.36997811682946       -0.57633091644607
C           -1.22118168072040       -1.26918516084449        0.22634020060148
C            0.00001245256174       -0.47774869483295        0.00001087280468
C            0.00000481097340        0.87518814657266       -0.00000533434638
C           -1.24192593254450        1.66500790776465        0.03858902261007
C           -1.34451659519754        2.77490281069939        0.87908418018288
C           -2.49757317441696        3.52624911229278        0.92161919029168
C           -3.58552942470515        3.20098045630165        0.10932121587040
O           -4.68069342150914        4.00783652631045        0.23008104253077
C           -5.81981793741620        3.72242777087488       -0.55176638951664
C           -3.48469333326303        2.11232225378857       -0.75011911054532
C           -2.32500039459440        1.35906962840185       -0.77887448771464
C            1.24193003844771        1.66501843759126       -0.03860083337448
C            1.34451449687367        2.77490729614800       -0.87910437239861
C            2.49756565679569        3.52626180384271       -0.92164312586408
C            3.58552314124337        3.20100760258600       -0.10934102560786
O            4.68068128622562        4.00787094350309       -0.23010488855940
C            5.81980905562869        3.72247322412037        0.55174191222990
C            3.48469506805242        2.11235265074432        0.75010452255635
C            2.32500697166802        1.35909240816954        0.77886452202911
C            1.22121174322755       -1.26917961867165       -0.22630139598265
C            2.10335437936432       -0.96981889422857       -1.26583318611618
C            3.23103977739701       -1.73110191933485       -1.47522128257358
C            3.51794213871131       -2.81995546804768       -0.64882246541997
O            4.66713268628156       -3.50028686779883       -0.93621080333529
C            5.01138412704301       -4.61141774297532       -0.13767956296058
C            2.63825666581533       -3.13628652237617        0.38008568958006
C            1.50291062614019       -2.36997017531119        0.57637463416471
C           -2.10332649797976       -0.96981364663193        1.26586717415891
C           -3.23102665602434       -1.73107866703652        1.47524459328877
H           -5.15701518134337       -4.32215820792100       -0.90768806067517
H           -5.95062358482018       -4.98292785977715        0.54446441718456
H           -4.25264499935952       -5.39763154563173        0.19851547978913
H           -2.82345261078464       -3.97437688130396       -1.03344583611747
H           -0.82800540305436       -2.62453125604195       -1.38138814510326
H           -0.51121813548761        3.03782143560267        1.51471549077384
H           -2.58480392020910        4.37810329615393        1.57867976746124
H           -6.55718568371339        4.47533635954931       -0.27761085754972
H           -6.21637287982593        2.72671438573905       -0.33066119211931
H           -5.60039207302109        3.80117434753217       -1.62102778554619
H           -4.29943561108690        1.84205503023954       -1.40325602664157
H           -2.25787667072776        0.52289515792615       -1.45882751910860
H            0.51121188708028        3.03782058212508       -1.51473264009285
H            2.58478749625426        4.37811784614336       -1.57870252188518
H            6.55717104300706        4.47538538697208        0.27758087203024
H            5.60038476868071        3.80122312186831        1.62100340530613
H            6.21637074945501        2.72676167201967        0.33064058982122
H            4.29944110986407        1.84209290121337        1.40324004461758
H            2.25789363724764        0.52291596042006        1.45881654168120
H            1.89255690584623       -0.13689334721067       -1.91944435288103
H            3.91324393511128       -1.50529921053619       -2.28057932719701
H            4.25260977640113       -5.39767224135983       -0.19851113059525
H            5.95059194224180       -4.98299578773620       -0.54447077744894
H            5.15700442818901       -4.32221932418133        0.90769153131286
H            2.82345681421899       -3.97439112933812        1.03347602544710
H            0.82801644122159       -2.62453474215330        1.38141598149943
H           -1.89253670796346       -0.13687518815803        1.91946419334279
H           -3.91323359605828       -1.50526664077066        2.28059760008610
