  32
  -55.1108088935000        1.00000000000000      !
 C          5.0247951441       -0.6937603091        0.0017521384
 C          5.0248937276        0.6933263071        0.0047968446
 C          3.8310800401        1.3925247639        0.0035733970
 C          2.6094436103        0.7247335574        0.0000687503
 N          1.4383187866        1.3568161426       -0.0008815786
 C          0.2818110819        0.7168758817       -0.0017239454
 C         -0.9594686441        1.4127821875       -0.0015150744
 C         -1.0019448028        2.8179075061       -0.0030583160
 C         -2.2161631390        3.4544297340       -0.0018093155
 C         -3.3800357865        2.6707257093        0.0012170588
 N         -3.3647977949        1.3649387300        0.0021499574
 C         -2.1980912111        0.7195436162        0.0005821078
 C         -2.1982679500       -0.7192620191        0.0009463264
 N         -3.3651420536       -1.3643415488        0.0034227896
 C         -3.3809112149       -2.6701205869        0.0031786925
 C         -2.2171845409       -3.4541222907        0.0001728156
 C         -1.0027545913       -2.8179764863       -0.0021942773
 C         -0.9597294074       -1.4128519056       -0.0015231957
 C          0.2816625115       -0.7172671569       -0.0024229202
 N          1.4382422395       -1.3572033158       -0.0033640164
 C          2.6093407741       -0.7250860949       -0.0021216027
 C          3.8310412562       -1.3926521026       -0.0020944479
 H          5.9585166592       -1.2348246992        0.0021743416
 H          5.9586605485        1.2342806301        0.0080752435
 H          3.8170095006        2.4712801235        0.0060075549
 H         -0.0657629109        3.3576077667       -0.0050117671
 H         -2.2856196876        4.5308204485       -0.0030902427
 H         -4.3588028141        3.1317979073        0.0026442344
 H         -4.3597897442       -3.1308002206        0.0060204478
 H         -2.2869691332       -4.5305051750       -0.0004790772
 H         -0.0668414083       -3.3580651937       -0.0049165421
 H          3.8171491766       -2.4715346146       -0.0039496585
