59
 energy: -97.986997717008 gnorm: 0.000076646266 xtb: 6.7.1 (edcfbbe)
C            7.48199967190409       -0.40795302614491       -1.97563431006404
C            6.84934383042097        0.82977772608814       -2.04528822420815
C            5.62202403388398        1.04865189854065       -1.43320588095087
C            5.04766999493132        0.00085596671534       -0.73281373237570
C            5.66658216915945       -1.27661588891787       -0.69484715287790
C            6.89652240537344       -1.47311036041250       -1.31430679323368
C            4.77254427657990       -2.14493371387294        0.00662629608736
C            4.77731911945945       -3.48821127091959        0.38420769366393
C            3.66645586535055       -3.95337678646648        1.07340530549959
C            2.61510847354878       -3.09180452433715        1.36394679446248
N            2.58604936119062       -1.80305169380840        1.01660825941373
C            3.64095728068443       -1.36514672307417        0.35505433597097
N            3.82758185681268       -0.06338414692278       -0.07165280095336
C            2.96103651457776        0.99216953740599        0.19041025399735
C            3.47449616903940        2.26201984097335        0.51582654904546
C            2.60915345377162        3.31456127589666        0.78143955861783
C            1.24833051635439        3.09563451898729        0.71801350779182
S           -0.00280711570020        4.28123936270329        1.00599038948886
C           -1.25722409442596        3.09349504750130        0.73786606342106
C           -2.61756937997734        3.31916509363392        0.79123164017705
C           -3.48576914535212        2.26281863763123        0.55030408981113
C           -2.97623642511549        0.98540325671610        0.26661451795322
N           -3.85484643358100       -0.07029307091369        0.04304505186842
C           -3.67566034410032       -1.39023520784151        0.43747195182427
C           -2.71789450404110       -1.94273501323301        1.27211854082513
C           -2.79203529311279       -3.30403418076781        1.53674544186295
C           -3.80452147775805       -4.09236095061824        0.99811511868954
C           -4.78975130568318       -3.54143167128729        0.19763810709348
C           -4.73487521333131       -2.17985171860184       -0.08159047197793
C           -5.58975016953872       -1.29208093580806       -0.80806095483206
C           -6.76260360371617       -1.42234062127599       -1.55136081797537
C           -7.28189436404141       -0.26784487448393       -2.11953471477301
C           -6.63545360946865        0.94947847875659       -1.93773237636876
N           -5.51616806655654        1.10192252619381       -1.22819423400133
C           -5.02381960642321        0.00305909189442       -0.68892511044785
C           -1.60278395339147        0.76402102751345        0.18581517981364
C           -0.71738355501234        1.81708227194950        0.42411472290497
C            0.70606399130656        1.81750818785066        0.40881027846494
C            1.58814727283383        0.76757381626936        0.14920573306672
H            8.43794506951531       -0.54106197439469       -2.46018161021898
H            7.31559172704035        1.63537837053469       -2.59167207971909
H            5.12806795167198        2.00277194359459       -1.52646006870972
H            7.37488264483127       -2.44013923052476       -1.28446948179296
H            5.60892634526347       -4.13509814568748        0.15001243079493
H            3.61020112037423       -4.98392359432328        1.38905687690440
H            1.74229907534200       -3.43630685571630        1.90069306640716
H            4.53767282371109        2.40264478755266        0.61352249079066
H            2.99740966529617        4.28442988960945        1.05017717777469
H           -3.00316676987511        4.29752815606244        1.03082176659683
H           -4.55079060173912        2.41056125243456        0.58587720934319
H           -1.94509211987475       -1.34053298552639        1.72355926623926
H           -2.05265614820812       -3.75488761709466        2.18085942472817
H           -3.82790427545911       -5.14861198933123        1.22213903696205
H           -5.58938334590572       -4.14883418388367       -0.19782553527183
H           -7.24160802874875       -2.38076484890207       -1.68162020378506
H           -8.18868199157616       -0.30477412884145       -2.70350935821153
H           -7.02497362886966        1.85967784491474       -2.37174084574206
H           -1.22006953985897       -0.20123837073674       -0.10309896111914
H            1.21413332913224       -0.21266259067158       -0.09199902410547
