59
 energy: -97.986990002003 gnorm: 0.000065404422 xtb: 6.7.1 (edcfbbe)
C            7.54474683727701       -0.40399284680396       -1.88022153144963
C            6.90752785633482        0.82939725905222       -1.97886537264370
C            5.66082164434695        1.04580623876419       -1.40632432098230
C            5.07162638882292        0.00090855971114       -0.71389040435961
C            5.69513137194895       -1.27324766287349       -0.64971746056981
C            6.94439497311607       -1.46762227985385       -1.23001875944206
C            4.78647025749894       -2.14067471995733        0.03354916633405
C            4.78779153837552       -3.48142588758822        0.42010231025893
C            3.66309210138711       -3.94656082462498        1.08628028470719
C            2.60185081376709       -3.08731971822543        1.34569203734232
N            2.57494887992311       -1.80141940910294        0.98749501926277
C            3.64329297779577       -1.36345446124458        0.34793893077775
N            3.83476479340633       -0.06370665634513       -0.08392622828416
C            2.96427028389698        0.99262660836546        0.16102558649961
C            3.47419127228283        2.26435119096833        0.48510527663131
C            2.60639685798940        3.31761691122200        0.73820403416995
C            1.24626459441172        3.09709567527979        0.66717973127402
S           -0.00609579304870        4.28221456157958        0.95002515407479
C           -1.25815317256631        3.09064306236023        0.69088191431907
C           -2.61859796598054        3.31288908120745        0.75534568257545
C           -3.48592761460580        2.25339673136710        0.52745211866357
C           -2.97600605293830        0.97657208789346        0.24032423750500
N           -3.85521973729168       -0.08099611983854        0.03053553874884
C           -3.66503776617064       -1.40291103833426        0.41462595411454
C           -2.68658855355324       -1.95958489416354        1.22211363501558
C           -2.75285284641169       -3.32254695403054        1.48059662252765
C           -3.77736502509911       -4.10917175009894        0.96284190925792
C           -4.78414010096123       -3.55405709970935        0.19277750766202
C           -4.73781158430418       -2.19068686729239       -0.07908722267328
C           -5.61460286699987       -1.29980479932825       -0.77472985633392
C           -6.81305120834259       -1.42643959215219       -1.47691865632721
C           -7.35248603650407       -0.26899593276820       -2.01958614181900
C           -6.69932909972842        0.94721106890653       -1.85503988865585
N           -5.55588230218181        1.09596417727771       -1.18428598248850
C           -5.04566334535988       -0.00519178354255       -0.66662174401437
C           -1.60232575558939        0.75974674776528        0.14493378035451
C           -0.71729377018859        1.81467138103041        0.37666729037749
C            0.70658624771502        1.81733706616155        0.36004510714931
C            1.59150538607860        0.76757348157725        0.10866997722195
H            8.51637509762460       -0.53491385542757       -2.33316052610512
H            7.38598071658220        1.63374321485550       -2.51648466041352
H            5.16507874217327        1.99643275334808       -1.52268594897383
H            7.42674265485478       -2.43173189410265       -1.17822974347255
H            5.62766437657103       -4.12608423495693        0.21049766542127
H            3.60357587290792       -4.97513765581186        1.40772884619203
H            1.71857103287890       -3.43166174398333        1.86500467518931
H            4.53612342477490        2.40592423486271        0.59354227374578
H            2.99186188539014        4.28897977312844        1.00552776283269
H           -3.00447898307357        4.29098281511586        0.99558198452514
H           -4.55075090896901        2.39823502697372        0.57553700699204
H           -1.90359622663284       -1.35993898598730        1.65904251743505
H           -1.99714892142064       -3.77622344044312        2.10335921660166
H           -3.79355305197069       -5.16688673749694        1.18048999809046
H           -5.59367813580109       -4.15965032845960       -0.18487763318135
H           -7.29681529758250       -2.38410005130271       -1.59444789994440
H           -8.28007028744677       -0.30270905753684       -2.57015613047233
H           -7.10341948990720        1.85972181024618       -2.27048805734669
H           -1.21931176137358       -0.20380127175308       -0.14895733152647
H            1.22006953450378       -0.21401973168102       -0.13090644853916
