58
 energy: -86.587652536895 gnorm: 0.000108221721 xtb: 6.7.1 (edcfbbe)
C           -0.54550512916972        3.15848591892596        0.77642667125937
C           -1.30904012039240        1.83755404252455        0.71908002508925
C           -1.73575352334539        1.53738790347414        2.17912130529647
C           -2.57056879603771        1.95824293105957       -0.11157773647467
C           -3.08499552058622        3.15486893680186       -0.58336858980969
C           -4.30565851397604        3.20286526292699       -1.23614889054800
C           -5.03179075141368        2.04136949029782       -1.42601882853573
C           -4.52454052860521        0.83229318996088       -0.99382027602659
C           -3.29206598758965        0.78220215203275       -0.34591240285593
N           -2.73766979647707       -0.43076427554564        0.04622095637551
C           -3.56633684449187       -1.58420051994919       -0.00598852563063
C           -3.53591375889930       -2.44657593134209       -1.09697895183822
C           -4.36757567004345       -3.55110896189137       -1.12512150396349
C           -5.23639212472840       -3.79598055598882       -0.07407040540638
C           -5.27533101108578       -2.93173229767204        1.00689966453070
C           -4.44294086696014       -1.82689715074500        1.04338181916876
C           -1.35864024367055       -0.54861574902164        0.14563175935342
C           -0.78784851907640       -1.83808603171878        0.18349921489623
C            0.56148550019779       -1.99254583040835        0.23048808034463
C            1.40898420707348       -0.87318472904676        0.12011506201281
C            2.79963321751487       -1.05873038420236        0.04749528984134
C            3.66537296251272       -0.00710784775930       -0.13628641800283
C            5.11443334836231       -0.21369129283931       -0.21095552106985
C            5.89496479970969        0.49632897871298       -1.12504672172206
C            7.25732835424020        0.29895838257675       -1.19684108025926
C            7.87252097685887       -0.61874540442876       -0.34357539715421
C            9.26791252973994       -0.82297241319892       -0.41023806611287
N           10.40161432112446       -0.98889778459677       -0.46522726252897
C            7.10319267115291       -1.33421659221991        0.57589508533170
C            5.74142349350785       -1.13075912400748        0.63510578179208
C            3.10489961309111        1.27602519045309       -0.28950668016253
C            1.76029105906798        1.48700209595935       -0.18094849504910
C            0.84472611007470        0.43862549938516        0.08075382176093
C           -0.55910676695413        0.59235417662712        0.24624791953004
H           -0.29914206925931        3.53065316404383       -0.21477346080356
H            0.35744504068322        3.04864554115697        1.37044908327718
H           -1.16926074409229        3.90177663911011        1.27058025883418
H           -2.31162831062681        0.61921954632355        2.24885579251940
H           -0.85236581902935        1.43479852186736        2.80633396341595
H           -2.34597608121513        2.35318829055606        2.56177357311455
H           -2.54737992038218        4.07679237831879       -0.43367272302807
H           -4.69184487835167        4.14945431215385       -1.58268777078241
H           -5.99037641305745        2.07133623033429       -1.92209782377417
H           -5.08109100077422       -0.07686875977028       -1.16405797692424
H           -2.86208171352180       -2.24237252226032       -1.91645941251231
H           -4.34125507528913       -4.21957253410602       -1.97285025951494
H           -5.88545769964076       -4.65826656441830       -0.10025908519922
H           -5.95465884698346       -3.11795935270814        1.82523846983528
H           -4.47036234195211       -1.14445120248556        1.88012892796406
H           -1.43317393816359       -2.70170272228741        0.22041143200925
H            0.99796025040999       -2.97642350355033        0.31954215382922
H            3.17711088775181       -2.07102754598856        0.09039757686593
H            5.42272939555485        1.19389622573876       -1.80075447420895
H            7.85554141888250        0.84651552792534       -1.91065065081682
H            7.58367724517794       -2.04060827060136        1.23720679584038
H            5.15122352597410       -1.67327434977180        1.35879995912053
H            3.75664773447677        2.11538114498615       -0.48454362828334
H            1.40261166269658        2.48111753029472       -0.36564242421872
