58
 energy: -86.515947116949 gnorm: 0.000039635228 xtb: 6.7.1 (edcfbbe)
C           -1.11536254173506        2.92574861502176       -1.21253060281793
C           -1.60569951099104        2.08056660368735       -0.00638109903589
C           -1.28967509967074        2.74444186394387        1.35683128147501
C           -3.11705694442993        2.03499029429595       -0.07381518330162
C           -3.82985694472598        3.22413221517299       -0.14032984888963
C           -5.21186270464581        3.24437850984750       -0.17261546125724
C           -5.91423370299930        2.04716422242240       -0.13638651986106
C           -5.23508795954205        0.85319221245449       -0.07460803889132
C           -3.83145815601596        0.83014726940123       -0.04335268380913
N           -3.15809012389501       -0.36719944468391        0.00873738395075
C           -3.92883975137667       -1.56741371303888        0.03683932972488
C           -4.29441860667406       -2.18191064417672       -1.15355702703863
C           -5.05124496837922       -3.33976769563667       -1.12121958678991
C           -5.44253346687259       -3.88154512104568        0.09209064391985
C           -5.07693440802187       -3.26569540293514        1.27758456547832
C           -4.31997021258403       -2.10747452400240        1.25455722284498
C           -1.78622580100025       -0.46646625366088        0.01086177780850
C           -1.20240354327830       -1.73504030543670        0.03804855849377
C            0.15718043329829       -1.88641869594342        0.03837220028118
C            1.01919297354802       -0.75344842365920        0.01881762727275
C            2.38908766313493       -0.92628150806072        0.02879182744063
C            3.30516622758262        0.17436131515448        0.03052282597420
C            4.72418040421402       -0.02037899692662        0.01878052750912
C            5.61458192289318        0.97912359932251        0.47679050003722
C            6.97022979777658        0.79318970972100        0.46709624109681
C            7.52011435094230       -0.40786451849476       -0.01528117152365
C            8.90785752709003       -0.60036384813372       -0.03034312658157
N           10.04839521371300       -0.75754279419990       -0.04413315056063
C            6.65377348345050       -1.41195948496716       -0.48058940166707
C            5.29824120645019       -1.22377259945214       -0.45487150127672
C            2.72348045565343        1.44906419060300        0.02720589425544
C            1.36747509474849        1.64229559955181       -0.00100629692932
C            0.43121973117514        0.55556097511715       -0.00160836977107
C           -0.95810694138263        0.71106671408078       -0.01458592736750
H           -0.77287770184047        3.90786695948151       -0.89605069375574
H           -1.92775156733597        3.06591419539877       -1.92298704328234
H           -0.30805328505279        2.42786103203097       -1.74099064581672
H           -0.22802116990094        2.72760561469737        1.57890293370085
H           -1.63898625463408        3.77346887988020        1.37244388499631
H           -1.80424822893355        2.19938332304299        2.14710009791447
H           -3.29355782213912        4.16011590211417       -0.17284511957760
H           -5.73845363130213        4.18452291223381       -0.22474787507374
H           -6.99338673111538        2.04832337697378       -0.15855370376739
H           -5.78454870580545       -0.07491949849290       -0.05002287162208
H           -3.98197295477136       -1.74967782768815       -2.09244401741930
H           -5.33541830787861       -3.81889916060133       -2.04579669590685
H           -6.03279654299263       -4.78493110962577        0.11367020044101
H           -5.38109955549565       -3.68698806349629        2.22370719350683
H           -4.02763669250284       -1.61833819456875        2.17174827524796
H           -1.83264324068128       -2.61055100550452        0.05826431515305
H            0.59470496848844       -2.87232069082391        0.05756304770781
H            2.77176697394728       -1.93343102630309        0.07891196383188
H            5.21865810841754        1.89848739788802        0.88072627681840
H            7.63298155218332        1.56313072178645        0.83595526677153
H            7.07321181988585       -2.33234103350950       -0.86156039208552
H            4.65713580359122       -1.99932153841735       -0.84461045936916
H            3.35853594703297        2.32234223113606       -0.00200451644892
H            1.01935304287124        2.65852373545379       -0.03784596911307
