58
 energy: -86.515933140881 gnorm: 0.000163571746 xtb: 6.7.1 (edcfbbe)
C           -1.29623394969908        2.68392310204036       -1.46155490840914
C           -1.60775287617683        2.07700328649455       -0.07069815712443
C           -1.11620981336822        2.97241665768857        1.09767157716891
C           -3.11894700075940        2.03217003704374       -0.00002601836386
C           -3.83325562829398        3.22200471488700        0.02389960346927
C           -5.21540867363311        3.24160685303210        0.05045292300654
C           -5.91635325399167        2.04300452319965        0.04959910821660
C           -5.23570500462812        0.84845142811114        0.03032369567628
C           -3.83189818869957        0.82606023632226        0.00839211525477
N           -3.15686663937601       -0.37146736127017        0.00234798531602
C           -3.92598010675997       -1.57292433338527        0.01809349265311
C           -4.28653014994038       -2.17729664274416       -1.17859573613129
C           -5.04235073073708       -3.33638955569835       -1.15890590609893
C           -5.43725465514859       -3.88910157611771        0.04811250684234
C           -5.07637639485404       -3.28327552473520        1.24036698286152
C           -4.32077113566961       -2.12422862670515        1.22998235130531
C           -1.78484799055355       -0.46883880392177        0.01318991935967
C           -1.19953142171609       -1.73636755781567        0.05172070697380
C            0.16026880811756       -1.88586511096441        0.05992952107998
C            1.02088834874128       -0.75212148072233        0.02802436163342
C            2.39104094264655       -0.92346945195201        0.03417570047001
C            3.30579036386950        0.17799479836000        0.01361032352048
C            4.72516891158284       -0.01519352567606        0.00679600123584
C            5.61292716728516        0.99341102876778        0.44952383238562
C            6.96887671558429        0.80905780664150        0.44669618840988
C            7.52144474260533       -0.39947019668412       -0.01328097918307
C            8.90946313443539       -0.59078278303604       -0.02066544163664
N           10.05008465003947       -0.74742942061161       -0.02786271668997
C            6.65766491273364       -1.41251154679430       -0.46372837920393
C            5.30176108521684       -1.22579223949154       -0.44455891465481
C            2.72292110403923        1.45171570638733       -0.01605502650153
C            1.36651134024398        1.64317760191565       -0.03834342019692
C            0.43140081368205        0.55587565465273       -0.00788981125380
C           -0.95817302044081        0.70985344925464       -0.00874222047235
H           -1.81216741542280        2.10556613736811       -2.22685291096452
H           -0.23542774718149        2.66011549050558       -1.68675177836951
H           -1.64780388736741        3.71073581957121       -1.51875520823647
H           -1.92527100363330        3.13589069987172        1.80694965702990
H           -0.30237184883419        2.50109711743418        1.64019414471754
H           -0.78137703884385        3.94294958666772        0.73995097351453
H           -3.29812254479073        4.15921239065471        0.02584983285168
H           -5.74324311622003        4.18230185242497        0.06928190804239
H           -6.99561829483524        2.04359962895051        0.06572942607526
H           -5.78415654004723       -0.08058311632743        0.03192774232567
H           -3.97147516591045       -1.73719068246249       -2.11292628150387
H           -5.32288638623933       -3.80767937388037       -2.08858706546690
H           -6.02667684990116       -4.79323080039082        0.05980373336269
H           -5.38323859191194       -3.71315818168557        2.18173561917928
H           -4.03201276255477       -1.64221842353790        2.15207069091017
H           -1.82867618214536       -2.61256703735501        0.07578948845735
H            0.59899265558969       -2.87097283021459        0.08953974719025
H            2.77504093836580       -1.92936805662908        0.09709994214403
H            5.21448779004521        1.91890612219905        0.83661411928356
H            7.62967088157294        1.58602677010200        0.80416213904585
H            7.07928719064934       -2.33869644142069       -0.82781877605932
H            4.66258439560047       -2.00878619670100       -0.82238220209649
H            3.35717259955934        2.32448500844827       -0.06918641268429
H            1.01708221406688        2.65844146902720       -0.08860010454575
