  67
  -107.247380229300       0.540202579347408      !
 O          2.2837432376        0.8233842314       -1.8666873771
 P          2.6824255241        0.3358774053       -0.5398008674
 C          1.8381593052        1.1532124367        0.8447799071
 C          1.5355958630        0.5273179931        2.0457041361
 C          0.8826171999        1.2331536906        3.0388233038
 C          0.5515340634        2.5638992998        2.8441719492
 C          0.8735869510        3.1946067179        1.6543379072
 C          1.5124729415        2.4875685928        0.6526757677
 C          4.4599580352        0.5260918899       -0.2026903334
 C          5.2642647764        1.0146910049       -1.2209480222
 C          6.6231792856        1.1737418847       -1.0131062631
 C          7.1745072244        0.8460890094        0.2146091506
 C          6.3693740052        0.3628618552        1.2353712654
 C          5.0117075959        0.2034565237        1.0305901283
 C          2.3769399861       -1.4511021803       -0.3331550687
 C          3.3391913265       -2.4397560941       -0.4723590778
 C          3.0011641199       -3.7894676907       -0.4188015242
 C          1.6938370921       -4.2010273589       -0.2370268031
 C          0.7090494600       -3.2300311099       -0.1028357514
 C          1.0690796330       -1.8690229328       -0.1537879969
 O         -0.0004553056       -1.0523227336        0.0008353358
 C         -1.0736842184       -1.8656414324        0.1507331629
 C         -2.3808142041       -1.4463302796        0.3307134559
 P         -2.7050247270        0.3351660388        0.5569900540
 O         -2.3654231118        0.7977365712        1.9090836019
 C         -4.4684997854        0.5185766357        0.1475284887
 C         -5.3171559281        1.0082783769        1.1285112248
 C         -6.6654028911        1.1679423671        0.8599609557
 C         -7.1616736117        0.8403556083       -0.3910017524
 C         -6.3121042905        0.3562371898       -1.3745892809
 C         -4.9652250118        0.1958812506       -1.1090293214
 C         -1.8211769910        1.1957940985       -0.7749907103
 C         -1.4908610570        0.6136321757       -1.9904519077
 C         -0.8250216678        1.3580203709       -2.9460455939
 C         -0.5092306890        2.6839332890       -2.7000024920
 C         -0.8571597435        3.2707153291       -1.4950916581
 C         -1.5086254750        2.5248013257       -0.5304329467
 C         -3.3447728519       -2.4341371646        0.4669113237
 C         -3.0104863427       -3.7843481333        0.4090516174
 C         -1.7040224300       -4.1976500247        0.2252777973
 C         -0.7177453451       -3.2279964300        0.0942052219
 H          1.7950569989       -0.5117206995        2.1979457224
 H          0.6226388242        0.7429555192        3.9651537210
 H          0.0342204831        3.1067941701        3.6210921850
 H          0.6195210722        4.2342562448        1.5053544207
 H          1.7552379900        2.9479844310       -0.2947520399
 H          4.8047552258        1.2625765211       -2.1670014356
 H          7.2523583059        1.5517889508       -1.8056337713
 H          8.2351113813        0.9677986975        0.3794242164
 H          6.8039663553        0.1121165392        2.1921986700
 H          4.3754694563       -0.1701385063        1.8203087517
 H          4.3693977789       -2.1494751896       -0.6223744747
 H          3.7809942518       -4.5284691415       -0.5268523481
 H          1.4402665285       -5.2493369735       -0.2012178809
 H         -4.9006503866        1.2553562136        2.0944753909
 H         -7.3291663881        1.5467565399        1.6233904283
 H         -8.2136605930        0.9634994940       -0.6033927508
 H         -6.7035578794        0.1050168351       -2.3497835585
 H         -4.2950335007       -0.1787059938       -1.8694794586
 H         -1.7373407518       -0.4218006715       -2.1825062980
 H         -0.5428148166        0.9019709910       -3.8830621813
 H          0.0166339397        3.2575264924       -3.4486798630
 H         -0.6132714055        4.3062237894       -1.3052073248
 H         -1.7717236483        2.9500332543        0.4278887445
 H         -4.3740462657       -2.1412613418        0.6188081125
 H         -3.7918908953       -4.5220107296        0.5148785024
 H         -1.4521216382       -5.2462271354        0.1855017324
  67
  -107.246801543800       0.292827062739121      !
 O          2.2632536544        0.8630897350       -1.8325769603
 P          2.6660055370        0.3517693962       -0.5159725033
 C          1.8106082912        1.1270139915        0.8857803022
 C          1.4481085439        2.4547814641        0.7161360935
 C          0.7978192046        3.1294381919        1.7327919897
 C          0.5027701046        2.4732361069        2.9156597243
 C          0.8711293784        1.1492261935        3.0879549469
 C          1.5339317175        0.4755359818        2.0793699376
 C          4.4399591170        0.5581536343       -0.1699588878
 C          4.9954051908        0.2046693148        1.0531267922
 C          6.3487364907        0.3865239223        1.2680194006
 C          7.1457499165        0.9226644913        0.2675586529
 C          6.5906988966        1.2804333631       -0.9500411129
 C          5.2362401757        1.0991031254       -1.1679718422
 C          2.3784895019       -1.4421081996       -0.3447119424
 C          3.3444389246       -2.4255323231       -0.4929309032
 C          3.0094117531       -3.7768258031       -0.4555077463
 C          1.7034233717       -4.1950574193       -0.2785988124
 C          0.7146181818       -3.2292382499       -0.1349743608
 C          1.0719429121       -1.8671116809       -0.1733629029
 O          0.0010023817       -1.0537434360       -0.0131584907
 C         -1.0698401339       -1.8701417833        0.1303963943
 C         -2.3764338204       -1.4497327069        0.3123321164
 P         -2.6665849039        0.3392782429        0.5246532938
 O         -2.2669946341        0.8196193290        1.8538928494
 C         -4.4395117542        0.5543717589        0.1791665721
 C         -5.2345051883        1.0921414217        1.1798694208
 C         -6.5873567920        1.2836753400        0.9605484289
 C         -7.1421072790        0.9392717863       -0.2610502805
 C         -6.3463069162        0.4065300178       -1.2642393342
 C         -4.9945599645        0.2148238101       -1.0480799484
 C         -1.8115211318        1.1507507226       -0.8567266796
 C         -1.5266919696        0.5291432902       -2.0641827961
 C         -0.8658782206        1.2310136606       -3.0546864412
 C         -0.5087125993        2.5536594454       -2.8509721917
 C         -0.8132352762        3.1805601746       -1.6546924888
 C         -1.4608644618        2.4773708071       -0.6558667631
 C         -3.3415986065       -2.4365639506        0.4425840107
 C         -3.0063467245       -3.7866046549        0.3767907745
 C         -1.7004160558       -4.2003894444        0.1888889460
 C         -0.7124177798       -3.2313143872        0.0636218117
 H          1.6707644996        2.9348369142       -0.2263803372
 H          0.5136053679        4.1636628031        1.6006804086
 H         -0.0230779946        2.9904308573        3.7041973161
 H          0.6325986870        0.6389146696        4.0093072096
 H          1.8198972121       -0.5592459651        2.2130206464
 H          4.3657853641       -0.2100000663        1.8274364622
 H          6.7861217633        0.1111844744        2.2167902238
 H          8.2028549695        1.0627103277        0.4404466247
 H          7.2135520180        1.7010113466       -1.7262430780
 H          4.7733904954        1.3716063216       -2.1057449206
 H          4.3742740149       -2.1309266558       -0.6368955024
 H          3.7916259616       -4.5122592276       -0.5708262096
 H          1.4542149426       -5.2447457226       -0.2532266325
 H         -4.7725545151        1.3514210037        2.1216467793
 H         -7.2092548942        1.7006593915        1.7391866326
 H         -8.1978919082        1.0878163196       -0.4349607419
 H         -6.7832043621        0.1419955474       -2.2162927094
 H         -4.3657324529       -0.1965477416       -1.8247245730
 H         -1.8035830014       -0.5045245168       -2.2224410856
 H         -0.6194636768        0.7437782780       -3.9863562473
 H          0.0145544422        3.0930236420       -3.6263707663
 H         -0.5378610886        4.2138262929       -1.4980105360
 H         -1.6916651518        2.9342727263        0.2962887539
 H         -4.3710697744       -2.1449197690        0.5950631325
 H         -3.7878486325       -4.5247353232        0.4788531326
 H         -1.4504474351       -5.2491425861        0.1416373823
  67
  -107.246270671900       0.166970357913471      !
 O          1.3752643150        1.2559296539        1.9145607566
 P          2.1558841938        0.5634010819        0.8844404064
 C          3.9428568334        0.8884379906        1.0080230450
 C          4.8613443521        0.4648854595        0.0560059370
 C          6.2033405172        0.7528252612        0.2237505916
 C          6.6299378814        1.4643529371        1.3347112962
 C          5.7135678560        1.8929287287        2.2807932978
 C          4.3703624482        1.6054198214        2.1160167651
 C          1.7136132299        1.0022329777       -0.8226635127
 C          1.9793330712        0.1786533048       -1.9082384616
 C          1.6935730977        0.6208538066       -3.1872259207
 C          1.1324781279        1.8737141786       -3.3815657498
 C          0.8445621526        2.6841690445       -2.2959257557
 C          1.1439697295        2.2515040282       -1.0169854542
 C          1.9891010319       -1.2497245568        0.9646017787
 C          2.9922347292       -2.1510339375        1.2879345567
 C          2.7205488337       -3.5077064949        1.4430294682
 C          1.4393289371       -4.0083277955        1.3061181129
 C          0.4148582552       -3.1234496570        0.9936797717
 C          0.7084969274       -1.7588534155        0.8148460254
 O         -0.3940031080       -1.0362439481        0.5050051459
 C         -1.4361885281       -1.9114836730        0.5182099940
 C         -2.7755255017       -1.6165061358        0.3174025881
 P         -3.4623390272        0.0330612869       -0.0460042447
 O         -4.8802122305        0.1282553717        0.3254785484
 C         -3.1805792909        0.2400038643       -1.8302115241
 C         -4.2935412383        0.5000086547       -2.6169508662
 C         -4.1590602295        0.6237625370       -3.9881217272
 C         -2.9118282373        0.4715151822       -4.5708043562
 C         -1.8008762616        0.2074857247       -3.7843120694
 C         -1.9278134762        0.0978849104       -2.4119132619
 C         -2.4190757048        1.2369125499        0.8275644281
 C         -2.0859771795        2.4454366979        0.2376934345
 C         -1.4167541614        3.4044194126        0.9778103069
 C         -1.0795356875        3.1530034536        2.2969440446
 C         -1.4165450063        1.9453473413        2.8852188345
 C         -2.0953092437        0.9898211427        2.1538156095
 C         -3.6753986590       -2.6704177887        0.3998894641
 C         -3.2632088371       -3.9713073822        0.6641327186
 C         -1.9281586743       -4.2636212779        0.8678397494
 C         -1.0080024544       -3.2250124511        0.8026909265
 H          4.5260480592       -0.0850668733       -0.8111649227
 H          6.9206781514        0.4235746935       -0.5139530508
 H          7.6795354691        1.6861675781        1.4601257034
 H          6.0464530619        2.4505451535        3.1438010465
 H          3.6323859455        1.9302823037        2.8351332197
 H          2.3988107122       -0.8061142453       -1.7507941456
 H          1.9103292262       -0.0133817681       -4.0354489329
 H          0.9135094803        2.2162865436       -4.3824722050
 H          0.3943909209        3.6537341676       -2.4496275287
 H          0.9337292588        2.8604128832       -0.1499603068
 H          4.0007760984       -1.7880838984        1.4248904791
 H          3.5305624748       -4.1778433732        1.6895052381
 H          1.2344276739       -5.0585556965        1.4453033861
 H         -5.2540720381        0.6017249814       -2.1325360363
 H         -5.0232011519        0.8323063853       -4.6018516906
 H         -2.8030088361        0.5572946573       -5.6423613000
 H         -0.8321391520        0.0850068915       -4.2445249039
 H         -1.0635914854       -0.0898653061       -1.7912385193
 H         -2.3509033813        2.6279514661       -0.7958669405
 H         -1.1606470044        4.3521203947        0.5241994531
 H         -0.5481979855        3.8992231317        2.8687478730
 H         -1.1468517893        1.7507301641        3.9122043242
 H         -2.3809848607        0.0463909361        2.6013283440
 H         -4.7230377706       -2.4423061626        0.2671732810
 H         -3.9988527893       -4.7594270178        0.7192744389
 H         -1.6020031926       -5.2693696132        1.0839893714
