  67
  -107.686316250000       0.214001849822559      !
 O          2.2599777661        0.8468289765       -1.8441693229
 P          2.6649600651        0.3494023950       -0.5229346739
 C          1.8104801102        1.1379665239        0.8719309754
 C          1.4462980840        2.4635379889        0.6892196497
 C          0.7965497979        3.1478164613        1.6997726040
 C          0.5037231165        2.5033893546        2.8896454813
 C          0.8737638598        1.1816086895        3.0749618882
 C          1.5360342695        0.4983926634        2.0724535694
 C          4.4391206619        0.5612429897       -0.1813078027
 C          4.9965041018        0.2208572838        1.0446087352
 C          6.3499042591        0.4063727125        1.2559084720
 C          7.1450580728        0.9331533484        0.2490165253
 C          6.5880718886        1.2778797583       -0.9714585801
 C          5.2335398887        1.0928564571       -1.1858001854
 C          2.3796446728       -1.4429485256       -0.3330247393
 C          3.3464926469       -2.4267768780       -0.4724411022
 C          3.0130074844       -3.7779837562       -0.4208137242
 C          1.7077072078       -4.1958164306       -0.2379827853
 C          0.7180171532       -3.2296639377       -0.1029520079
 C          1.0737866430       -1.8676100187       -0.1556836388
 O          0.0021509112       -1.0538211060       -0.0024144665
 C         -1.0676057536       -1.8698827477        0.1508240235
 C         -2.3744323025       -1.4490682387        0.3301309674
 P         -2.6662925757        0.3416967899        0.5245694037
 O         -2.2655524308        0.8360048716        1.8483309364
 C         -4.4398918268        0.5513182757        0.1791704446
 C         -5.2342128221        1.0983960622        1.1753516599
 C         -6.5875517606        1.2862048834        0.9558158647
 C         -7.1434660438        0.9287553479       -0.2614985798
 C         -6.3483468257        0.3866807186       -1.2602181661
 C         -4.9961163468        0.1986661679       -1.0438406435
 C         -1.8138748341        1.1399736755       -0.8661031956
 C         -1.5298862436        0.5063965544       -2.0675207904
 C         -0.8711025738        1.1988509793       -3.0659722137
 C         -0.5151422607        2.5238949822       -2.8762110631
 C         -0.8188443301        3.1626296236       -1.6859981311
 C         -1.4644314687        2.4689555477       -0.6792284445
 C         -3.3383397598       -2.4355739925        0.4716701325
 C         -3.0016787758       -3.7858482861        0.4192183320
 C         -1.6955301160       -4.2001004236        0.2338788977
 C         -0.7087632611       -3.2312741355        0.0974761403
 H          1.6672305579        2.9341997187       -0.2584261228
 H          0.5110256381        4.1803288129        1.5574851511
 H         -0.0216985763        3.0280237687        3.6735389328
 H          0.6369633542        0.6804592972        4.0017733800
 H          1.8233126480       -0.5346593843        2.2162835161
 H          4.3683232380       -0.1865819167        1.8239093107
 H          6.7887936292        0.1412012877        2.2068785028
 H          8.2022254927        1.0761101277        0.4191182176
 H          7.2094771294        1.6912005582       -1.7527029624
 H          4.7692031959        1.3552761070       -2.1257116323
 H          4.3758183984       -2.1325294619       -0.6207164327
 H          3.7958879091       -4.5136997186       -0.5296254938
 H          1.4596919213       -5.2454631098       -0.2015906262
 H         -4.7713580885        1.3677710729        2.1138459424
 H         -7.2089250361        1.7104279527        1.7309548464
 H         -8.1996334442        1.0743647746       -0.4355670358
 H         -6.7861555567        0.1119736791       -2.2089663155
 H         -4.3678173557       -0.2199167939       -1.8170522236
 H         -1.8058341132       -0.5291333869       -2.2148774288
 H         -0.6253282414        0.7024093312       -3.9929391714
 H          0.0065467092        3.0558951133       -3.6577362143
 H         -0.5444148526        4.1977401642       -1.5402117144
 H         -1.6945325123        2.9352913039        0.2685125133
 H         -4.3679390640       -2.1435151665        0.6224813117
 H         -3.7822342767       -4.5237533172        0.5297991426
 H         -1.4444619653       -5.2490071106        0.1970045245
  67
  -107.686315670000       0.213870545840516      !
 O          2.2594959090        0.8676115997       -1.8272990947
 P          2.6657609617        0.3592619184       -0.5106565087
 C          1.8099717914        1.1332591320        0.8915411818
 C          1.4370308280        2.4579081914        0.7199766763
 C          0.7842921702        3.1298059132        1.7368657004
 C          0.4974103508        2.4740066246        2.9219743264
 C          0.8761619701        1.1532096305        3.0960974403
 C          1.5411195568        0.4822145330        2.0871152218
 C          4.4400442875        0.5698141292       -0.1679142435
 C          5.2301717808        1.1291621370       -1.1604090808
 C          6.5849447925        1.3127313388       -0.9449609808
 C          7.1463367129        0.9382599695        0.2644655214
 C          6.3552063765        0.3842729889        1.2600505388
 C          5.0018515588        0.2008721334        1.0479511532
 C          2.3812814613       -1.4346786671       -0.3332536914
 C          3.3487594191       -2.4182711154       -0.4699678617
 C          3.0152504704       -3.7695971367       -0.4225533517
 C          1.7091356754       -4.1878171735       -0.2464955659
 C          0.7189041269       -3.2219173947       -0.1141401982
 C          1.0744639649       -1.8595638807       -0.1626992570
 O          0.0020341230       -1.0465729087       -0.0110610216
 C         -1.0677342984       -1.8633853450        0.1380217981
 C         -2.3749229657       -1.4429831690        0.3166714571
 P         -2.6599841902        0.3494740368        0.5062263665
 O         -2.2383683779        0.8518929298        1.8202997753
 C         -4.4386320737        0.5625263482        0.1884298809
 C         -5.0159889259        0.2213920873       -1.0281236317
 C         -6.3720692405        0.4099157203       -1.2184933815
 C         -7.1503056067        0.9403950114       -0.2003484058
 C         -6.5735332767        1.2860056785        1.0105584317
 C         -5.2162376238        1.0979775424        1.2039936642
 C         -1.8188566217        1.1287741674       -0.9019446461
 C         -1.5604726176        0.4810536719       -2.1015536013
 C         -0.9017596462        1.1539878863       -3.1135065579
 C         -0.5188918008        2.4733379476       -2.9380006285
 C         -0.7960423114        3.1261038687       -1.7488109161
 C         -1.4423869819        2.4523154427       -0.7292198757
 C         -3.3391671327       -2.4297371936        0.4529473796
 C         -3.0021126269       -3.7798979234        0.3970227143
 C         -1.6956085072       -4.1936232299        0.2133410124
 C         -0.7084497176       -3.2244143775        0.0821745018
 H          1.6536596572        2.9374253545       -0.2242149388
 H          0.4913446433        4.1614311141        1.6032476521
 H         -0.0305771983        2.9888450657        3.7106012286
 H          0.6434259785        0.6427382686        4.0188900779
 H          1.8344056114       -0.5503380283        2.2220549321
 H          4.7636815827        1.4109202509       -2.0934280159
 H          7.2027591415        1.7466353595       -1.7175797145
 H          8.2034721190        1.0797549726        0.4356930107
 H          6.7977360635        0.0968980137        2.2028333112
 H          4.3766953824       -0.2275072190        1.8182804881
 H          4.3788688668       -2.1237230712       -0.6120385744
 H          3.7987791972       -4.5050505034       -0.5284984899
 H          1.4609636636       -5.2375064438       -0.2124471081
 H         -4.4010324961       -0.1879880643       -1.8167207759
 H         -6.8265308275        0.1449919004       -2.1621517688
 H         -8.2095957120        1.0858241542       -0.3544795199
 H         -7.1815154392        1.7010452811        1.8010126677
 H         -4.7371426026        1.3594985517        2.1365221938
 H         -1.8566096010       -0.5505370360       -2.2375822288
 H         -0.6768436838        0.6456982378       -4.0394646865
 H          0.0044302354        2.9897244646       -3.7287207873
 H         -0.4999546266        4.1566561602       -1.6143121878
 H         -1.6521169638        2.9293904234        0.2177041934
 H         -4.3692165525       -2.1385468098        0.6021179340
 H         -3.7830573872       -4.5180880342        0.5028430214
 H         -1.4446103299       -5.2424178453        0.1732691990
  67
  -107.686308230000       0.212193360407489      !
 O          2.2466405755        0.8720619202       -1.8260168437
 P          2.6623592719        0.3590403880       -0.5140902807
 C          1.8172479418        1.1314238845        0.8956959055
 C          1.4433076247        2.4562167747        0.7276484008
 C          0.7926036310        3.1260142909        1.7471935651
 C          0.5087831981        2.4679949089        2.9317476694
 C          0.8900371758        1.1474983219        3.1031321799
 C          1.5530665436        0.4786502429        2.0914367588
 C          4.4399411911        0.5678416782       -0.1875824147
 C          5.2188769243        1.1255952910       -1.1900771172
 C          6.5752721434        1.3123226764       -0.9895278422
 C          7.1498759484        0.9430413996        0.2154229365
 C          6.3702289579        0.3905306199        1.2206714629
 C          5.0149253735        0.2036106039        1.0233177824
 C          2.3752816839       -1.4347664663       -0.3411337131
 C          3.3395261305       -2.4182985622       -0.4998950838
 C          3.0052916855       -3.7695429831       -0.4578041335
 C          1.7017669692       -4.1876947621       -0.2629554138
 C          0.7147993537       -3.2218189041       -0.1083859513
 C          1.0705022724       -1.8594563981       -0.1556092084
 O          0.0000579937       -1.0466446219        0.0102382445
 C         -1.0689681484       -1.8634858907        0.1660014704
 C         -2.3755569532       -1.4439635869        0.3507132378
 P         -2.6737042626        0.3476328423        0.5288199983
 O         -2.2832676176        0.8575250080        1.8497667676
 C         -4.4454387134        0.5508414986        0.1681094957
 C         -5.2421142075        1.1315158361        1.1431091430
 C         -6.5931037620        1.3209968102        0.9107268087
 C         -7.1444849807        0.9314745144       -0.2986454465
 C         -6.3471259215        0.3554084867       -1.2763274548
 C         -4.9972785010        0.1659186924       -1.0471608125
 C         -1.8129477132        1.1326258814       -0.8643363492
 C         -1.5331206927        0.4906421252       -2.0623446046
 C         -0.8653238204        1.1715531132       -3.0626904973
 C         -0.4959840923        2.4936924352       -2.8784811231
 C         -0.7955030511        3.1410074640       -1.6918943209
 C         -1.4501622856        2.4587989579       -0.6831043946
 C         -3.3376391509       -2.4315361048        0.4972204490
 C         -3.0000471311       -3.7815168298        0.4429120914
 C         -1.6951224126       -4.1943948908        0.2464453852
 C         -0.7100952731       -3.2245189099        0.1048596417
 H          1.6569423524        2.9373755720       -0.2163521903
 H          0.4983695535        4.1575347341        1.6158337832
 H         -0.0178147956        2.9810968118        3.7224183053
 H          0.6609104996        0.6357898369        4.0261702676
 H          1.8491207108       -0.5533374995        2.2247874791
 H          4.7415087569        1.4043436205       -2.1184993947
 H          7.1842137452        1.7448535563       -1.7699903309
 H          8.2082814045        1.0885202280        0.3753877790
 H          6.8231868408        0.1069408989        2.1595996132
 H          4.3991988639       -0.2238504720        1.8017617963
 H          4.3673765926       -2.1233138652       -0.6567414483
 H          3.7857360965       -4.5050967855       -0.5837844614
 H          1.4531603599       -5.2373889612       -0.2332305791
 H         -4.7829774272        1.4248414676        2.0761833757
 H         -7.2156563709        1.7721748943        1.6693664461
 H         -8.1985680452        1.0787081455       -0.4835073991
 H         -6.7816695662        0.0559138422       -2.2190456886
 H         -4.3675151615       -0.2783280340       -1.8047154337
 H         -1.8189510524       -0.5428444340       -2.2055638500
 H         -0.6228752705        0.6680352737       -3.9867157888
 H          0.0337972729        3.0163484242       -3.6606869119
 H         -0.5108869405        4.1738834775       -1.5504563650
 H         -1.6757279076        2.9313204793        0.2624623275
 H         -4.3668207137       -2.1405523805        0.6529458811
 H         -3.7792517927       -4.5201066326        0.5585294937
 H         -1.4438183306       -5.2430558499        0.2047888236
  67
  -107.686198010000       0.188833127344908      !
 O          2.2804680728        0.8068000940       -1.8778992275
 P          2.6813674572        0.3332861819       -0.5466206919
 C          1.8379502482        1.1637755764        0.8306304472
 C          1.5375985651        0.5498304456        2.0382594208
 C          0.8850967074        1.2650432812        3.0249624019
 C          0.5522963188        2.5933720350        2.8171747875
 C          0.8721461276        3.2122642829        1.6205614655
 C          1.5105458548        2.4957465613        0.6253462104
 C          4.4591135967        0.5288709909       -0.2137361231
 C          5.2615907702        1.0079391502       -1.2379486180
 C          6.6205904243        1.1705862473       -1.0334739632
 C          7.1738330289        0.8560733407        0.1968139267
 C          6.3705266067        0.3824014966        1.2234769943
 C          5.0127793146        0.2194325426        1.0220648212
 C          2.3781197245       -1.4518258694       -0.3213747902
 C          3.3412868088       -2.4407958438       -0.4517186315
 C          3.0048202774       -3.7902596616       -0.3839700096
 C          1.6981801343       -4.2013725804       -0.1963398632
 C          0.7124899734       -3.2301350917       -0.0707999038
 C          1.0709502448       -1.8693246740       -0.1360866238
 O          0.0007093581       -1.0522593622        0.0115659951
 C         -1.0714290815       -1.8651794399        0.1711187361
 C         -2.3787931886       -1.4454833242        0.3484822337
 P         -2.7046868893        0.3378725658        0.5569954468
 O         -2.3638867527        0.8145785384        1.9038675266
 C         -4.4688802609        0.5151707120        0.1479360173
 C         -5.3168356852        1.0139233572        1.1249567794
 C         -6.6655970276        1.1693669181        0.8565133948
 C         -7.1630873695        0.8284977450       -0.3904096085
 C         -6.3142282370        0.3353025631       -1.3700931220
 C         -4.9668375948        0.1791350998       -1.1046310880
 C         -1.8234770850        1.1858376741       -0.7848185082
 C         -1.4940555307        0.5916720597       -1.9947010253
 C         -0.8302490785        1.3270035769       -2.9586842846
 C         -0.5156134133        2.6557009972       -2.7265770249
 C         -0.8626665189        3.2543596458       -1.5272689445
 C         -1.5120861786        2.5176105533       -0.5542239253
 C         -3.3414859085       -2.4329027129        0.4959754673
 C         -3.0057800712       -3.7832674107        0.4514597459
 C         -1.6990934800       -4.1969939953        0.2702424975
 C         -0.7140557976       -3.2276502850        0.1280309032
 H          1.7984008480       -0.4873174978        2.2007564946
 H          0.6268326051        0.7840335129        3.9565740706
 H          0.0353660183        3.1435960699        3.5891785500
 H          0.6167425405        4.2500621505        1.4613092052
 H          1.7516028964        2.9467416010       -0.3270360869
 H          4.8006109482        1.2456616222       -2.1858932088
 H          7.2483479308        1.5412187917       -1.8306174290
 H          8.2345096102        0.9806164324        0.3590256400
 H          6.8066060554        0.1419020191        2.1822559690
 H          4.3779542225       -0.1467845590        1.8163631643
 H          4.3709810493       -2.1509342632       -0.6060008161
 H          3.7853297682       -4.5294719525       -0.4854750991
 H          1.4458143982       -5.2495389764       -0.1495200035
 H         -4.8993819291        1.2712942595        2.0878190094
 H         -7.3288126725        1.5552212675        1.6168870835
 H         -8.2154777210        0.9483195855       -0.6027024162
 H         -6.7066371720        0.0737226086       -2.3421747096
 H         -4.2971948497       -0.2024551358       -1.8620769028
 H         -1.7396329088       -0.4459342485       -2.1758727958
 H         -0.5487237371        0.8617308783       -3.8913614136
 H          0.0086690955        3.2222036763       -3.4817347184
 H         -0.6196833228        4.2920166010       -1.3482645801
 H         -1.7744418403        2.9523055729        0.4000470281
 H         -4.3708895575       -2.1396180330        0.6461915332
 H         -3.7862339720       -4.5206658974        0.5657999876
 H         -1.4460838985       -5.2456463140        0.2408389675
  67
  -107.685458560000       8.634764447546718E-002 !
 O          1.3538580945        1.2266177621        1.9485202713
 P          2.1459169115        0.5504872349        0.9162405153
 C          3.9312681850        0.8743005615        1.0640871753
 C          4.8601907739        0.4659576538        0.1155559233
 C          6.2001376746        0.7518098183        0.3021896526
 C          6.6143452026        1.4461781443        1.4285889528
 C          5.6876009411        1.8596367256        2.3712869223
 C          4.3464126822        1.5741688234        2.1876144525
 C          1.7217861185        1.0155890355       -0.7885099692
 C          1.9996472295        0.2090726026       -1.8838126342
 C          1.7274099281        0.6709599620       -3.1587855302
 C          1.1677143650        1.9264559562       -3.3396869709
 C          0.8676652957        2.7198390336       -2.2447619764
 C          1.1535444035        2.2674923503       -0.9695412809
 C          1.9793290119       -1.2637328342        0.9664507029
 C          2.9794464767       -2.1695413329        1.2865380656
 C          2.7068918015       -3.5285699118        1.4176233665
 C          1.4275088230       -4.0275316643        1.2591708715
 C          0.4059478882       -3.1383303421        0.9494912303
 C          0.7007049113       -1.7710014426        0.7950306887
 O         -0.3988149935       -1.0441216138        0.4845893343
 C         -1.4405760459       -1.9198890828        0.4729857125
 C         -2.7778451232       -1.6223797934        0.2623710691
 P         -3.4616621313        0.0323486789       -0.0827637007
 O         -4.8835051430        0.1211809283        0.2748633138
 C         -3.1608405915        0.2670837910       -1.8604068661
 C         -4.2654230338        0.5388147959       -2.6549542019
 C         -4.1162677890        0.6838978944       -4.0225116240
 C         -2.8627506245        0.5412282307       -4.5940236806
 C         -1.7601730524        0.2654760539       -3.7998074642
 C         -1.9018063348        0.1345283513       -2.4307214207
 C         -2.4285547403        1.2229203952        0.8205671117
 C         -2.0898272396        2.4405940309        0.2531451963
 C         -1.4291609677        3.3882449996        1.0152199949
 C         -1.1060104066        3.1165170044        2.3338472026
 C         -1.4486318007        1.8997344752        2.8996445621
 C         -2.1189344935        0.9554003960        2.1462327685
 C         -3.6779443546       -2.6778148308        0.3187963434
 C         -3.2678696805       -3.9824807719        0.5672399488
 C         -1.9349199043       -4.2773735225        0.7807488831
 C         -1.0147164965       -3.2375003214        0.7416394553
 H          4.5345624757       -0.0706023925       -0.7636061781
 H          6.9255615654        0.4343473914       -0.4327686238
 H          7.6624041927        1.6664501818        1.5687252696
 H          6.0108586564        2.4039235853        3.2463796464
 H          3.6005536530        1.8875237981        2.9036985219
 H          2.4179757005       -0.7778482646       -1.7371639930
 H          1.9536468467        0.0500595266       -4.0143670680
 H          0.9593299957        2.2844371432       -4.3374556067
 H          0.4186135348        3.6914885868       -2.3882351889
 H          0.9336350969        2.8627798757       -0.0954838947
 H          3.9862458617       -1.8083469880        1.4399622897
 H          3.5145937585       -4.2021198709        1.6623759781
 H          1.2217289433       -5.0798780906        1.3798247236
 H         -5.2311690945        0.6326030609       -2.1793896285
 H         -4.9738754576        0.9015902666       -4.6421999781
 H         -2.7424573441        0.6436791338       -5.6628863487
 H         -0.7864695658        0.1505553977       -4.2514082483
 H         -1.0442043473       -0.0624806890       -1.8037659213
 H         -2.3437226204        2.6390250272       -0.7802505929
 H         -1.1687357305        4.3429797071        0.5791567332
 H         -0.5812874334        3.8539871726        2.9228520684
 H         -1.1898919407        1.6893065707        3.9263301298
 H         -2.4088633281        0.0050184771        2.5759469056
 H         -4.7242265027       -2.4481006990        0.1783638274
 H         -4.0036086566       -4.7716637979        0.6022185750
 H         -1.6105277063       -5.2862224578        0.9847618700
  67
  -107.685440950000       8.475347210906127E-002 !
 O          1.4579790236        0.2653905346       -2.2032813699
 P          2.1871994555        0.1653952431       -0.9352024863
 C          1.6460048600        1.3351008954        0.3462007286
 C          1.0656753044        2.5154934827       -0.0932156312
 C          0.7034913891        3.4899206286        0.8188527462
 C          0.9386986590        3.2900677070        2.1691336105
 C          1.5085729013        2.1054447247        2.6100217544
 C          1.8578786967        1.1226677834        1.7017260197
 C          3.9726480682        0.4716447792       -1.1137634191
 C          4.4523798216        0.6355748794       -2.4049326478
 C          5.7975860634        0.8775456983       -2.6198183035
 C          6.6631669233        0.9571635963       -1.5414454880
 C          6.1838737095        0.7998181559       -0.2498429430
 C          4.8397847391        0.5596538361       -0.0320755380
 C          2.0520845143       -1.4791520062       -0.1614059367
 C          3.0847489714       -2.3843225175        0.0318177448
 C          2.8402255662       -3.6621005250        0.5277468649
 C          1.5596645608       -4.0894957256        0.8250198739
 C          0.5063685490       -3.2051298940        0.6284402643
 C          0.7713561729       -1.9086331676        0.1496379384
 O         -0.3567569637       -1.1703197178        0.0251692940
 C         -1.3849811490       -1.9874085776        0.3817845258
 C         -2.7372445126       -1.6843998073        0.3559357917
 P         -3.4596135841       -0.0878649226       -0.1481052833
 O         -4.8550601544       -0.2321594698       -0.5833735064
 C         -2.3780759536        0.5836939263       -1.4444400561
 C         -1.9882494859       -0.2577224648       -2.4763931901
 C         -1.2742769184        0.2497374907       -3.5446963397
 C         -0.9669615682        1.5994732040       -3.5898030393
 C         -1.3698067950        2.4408220602       -2.5668375959
 C         -2.0748537492        1.9347543874       -1.4887869544
 C         -3.2803765088        0.9575677118        1.3285712372
 C         -2.0614407277        1.1527466314        1.9642919307
 C         -2.0131171966        1.9080616727        3.1213414584
 C         -3.1687578133        2.4776391614        3.6338729144
 C         -4.3820833426        2.2915744543        2.9923689232
 C         -4.4379165345        1.5239422002        1.8429191410
 C         -3.6177578856       -2.6840851621        0.7462985048
 C         -3.1743712361       -3.9368217505        1.1541701400
 C         -1.8262070534       -4.2392885963        1.1748401580
 C         -0.9240874202       -3.2601749457        0.7781574014
 H          0.8990620932        2.6423113845       -1.1528490498
 H          0.2469339105        4.4082141639        0.4800681331
 H          0.6719093079        4.0570699644        2.8817269359
 H          1.6833019701        1.9479814467        3.6652336084
 H          2.2851318237        0.1890576547        2.0429539139
 H          3.7532403148        0.5710226348       -3.2261290874
 H          6.1715770120        1.0041160255       -3.6251052472
 H          7.7140771058        1.1456235884       -1.7050661127
 H          6.8616171571        0.8660363536        0.5889053474
 H          4.4625749783        0.4423047655        0.9733301164
 H          4.0950932109       -2.0894568305       -0.2123933754
 H          3.6723172735       -4.3355339599        0.6688403650
 H          1.3775579551       -5.0872117221        1.1933872190
 H         -2.2506070402       -1.3071539436       -2.4310530155
 H         -0.9538382144       -0.4042899364       -4.3415336315
 H         -0.4080165413        1.9955349189       -4.4245659123
 H         -1.1367664827        3.4959249467       -2.6097563136
 H         -2.3904490057        2.5813713334       -0.6801952833
 H         -1.1620878467        0.7210976365        1.5496605959
 H         -1.0713050373        2.0519543676        3.6285751175
 H         -3.1213535588        3.0673176286        4.5380989204
 H         -5.2813194465        2.7379979502        3.3915195004
 H         -5.3703494986        1.3496144625        1.3253619688
 H         -4.6741928130       -2.4613227861        0.7064976833
 H         -3.8956131415       -4.6837849915        1.4495403922
 H         -1.4758479596       -5.2132965113        1.4800632215
