  130
  -171.054441165000       0.929138592608449      !
 C          4.6681241148        3.5863796567        4.1267389024
 C          3.9075412841        3.5750487527        2.8339198791
 C          3.2117352095        4.7072079551        2.4428034789
 C          2.5201084915        4.7553567954        1.2443719075
 C          1.7902532106        6.0102719324        0.8637613928
 C          2.5110291347        3.6288408029        0.4214313874
 C          1.7506359816        3.7167596138       -0.8820812168
 C          0.3267944642        3.5409803292       -0.6638801381
 C         -0.8481742388        3.3885791789       -0.4511278396
 C         -2.2355496591        3.2330825322       -0.2339554779
 C         -3.0946002183        2.9179244193       -1.2846760331
 C         -4.4493386627        2.7822435352       -1.0776247656
 C         -5.0089244685        2.9558729333        0.1951676096
 N         -6.3635252059        2.8594625692        0.4055956532
 C         -6.8768860037        2.7447670412        1.7475265111
 C         -7.2566838505        2.5947561321       -0.6938491382
 C         -4.1353325143        3.2665697127        1.2477187957
 C         -2.7819342111        3.4013408351        1.0371124027
 C          3.1439900250        2.4355218341        0.8209686526
 B          2.9640195665        1.0993085948       -0.0026726087
 C          2.6240444805       -0.2474335084        0.7546565340
 C          3.3729387293       -1.4143479064        0.5058113727
 C          4.5339580894       -1.4108036591       -0.4493814093
 C          3.0702410425       -2.6083327504        1.1562809366
 C          3.8187046230       -3.8764364735        0.8661624545
 C          2.0554576003       -2.6286947151        2.0973078400
 C          1.3114676333       -1.4994484984        2.3841188556
 C          0.2349493886       -1.5780499924        3.4262717744
 C          1.5834784545       -0.3159913808        1.6960058961
 C          0.6671231922        0.8603457829        1.9510911423
 C         -0.6528056568        0.5674565844        1.4259245640
 C         -1.7255287074        0.2630954800        0.9733430150
 C         -2.9955224582       -0.0629447076        0.4492962687
 C         -3.1506772773       -0.3708019134       -0.9000441901
 C         -4.3908121287       -0.6701141533       -1.4199281200
 C         -5.5353594744       -0.6800988872       -0.6132231648
 N         -6.8002682352       -0.9011296640       -1.1432454897
 C         -6.9117416741       -1.3697680645       -2.5048333856
 C         -7.8618456782       -1.3027148572       -0.2474876422
 C         -5.3635457243       -0.4030809897        0.7485544247
 C         -4.1243001359       -0.0927632437        1.2649059525
 C          3.1483953685        1.0319995095       -1.5714481062
 C          4.3450147733        1.4179932586       -2.1971799562
 C          5.4616953225        2.0627933574       -1.4251580266
 C          4.5301460912        1.1932209539       -3.5628337987
 C          5.8067396049        1.5899920363       -4.2427200514
 C          3.5242468536        0.5838394915       -4.2941314491
 C          2.3122577447        0.2388652440       -3.7156799299
 C          1.2367615584       -0.3930659882       -4.5491493235
 C          2.1210768971        0.4898515194       -2.3604403657
 C          0.7653438271        0.2338058749       -1.7441707215
 C          0.5942813637       -1.1580052627       -1.3854344980
 C          0.4827894086       -2.3135283412       -1.0707251780
 C          0.3669173936       -3.6453066446       -0.6170693305
 C         -0.4791927241       -3.9540915615        0.4466974302
 C         -0.5529297302       -5.2374620583        0.9411221396
 C          0.2106533868       -6.2768938449        0.3903451933
 N          0.1148980301       -7.5719973241        0.8659553130
 C          1.0930183076       -8.5476817867        0.4490531482
 C         -0.5609561008       -7.8142285193        2.1174930735
 C          1.0469649275       -5.9575499721       -0.6877014358
 C          1.1197699257       -4.6722309271       -1.1803723171
 C          3.8754785046        2.4398289565        2.0248872237
 C          4.6763044864        1.2461242491        2.4608367252
 H          5.7400985478        3.4997110855        3.9465796114
 H          4.3695020526        2.7523478387        4.7603208344
 H          4.4882036487        4.5135741607        4.6658071316
 H          3.2165124287        5.5780501066        3.0844536611
 H          1.8029517009        6.7193102287        1.6883398265
 H          2.2579986371        6.4873555262        0.0013566693
 H          0.7544953946        5.7900123200        0.6082010563
 H          1.9192954198        4.6954575655       -1.3415205662
 H          2.0998565527        2.9562624724       -1.5803370996
 H         -2.6882200541        2.7754650669       -2.2762144930
 H         -5.0726299284        2.5208977865       -1.9170979999
 H         -6.3131196932        2.0065401752        2.3252674360
 H         -7.9176326424        2.4289606148        1.7146249704
 H         -6.8312895880        3.7051979213        2.2733135135
 H         -8.2851131131        2.7119283626       -0.3567137529
 H         -7.0866682702        3.3151901585       -1.4971456471
 H         -7.1325475227        1.5826740874       -1.0960149045
 H         -4.5160747468        3.4158444435        2.2452377643
 H         -2.1301052862        3.6397455709        1.8655187014
 H          5.3228219037       -2.0729500318       -0.0984429720
 H          4.9533955242       -0.4195388276       -0.5682100900
 H          4.2099066230       -1.7614165842       -1.4298610153
 H          3.8656486108       -4.0601720177       -0.2050280718
 H          3.3186876529       -4.7202630283        1.3359970164
 H          4.8392317639       -3.8273353696        1.2494552531
 H          1.8319233784       -3.5538082578        2.6112552455
 H         -0.7297628480       -1.3006040571        3.0050767669
 H          0.4460542090       -0.9001720760        4.2545153829
 H          0.1669821175       -2.5890484147        3.8214878340
 H          0.5910324444        1.0536143420        3.0262948684
 H          1.0380673209        1.7661781866        1.4727308208
 H         -2.2809761062       -0.3842721802       -1.5393626099
 H         -4.4560094606       -0.9044933032       -2.4698831260
 H         -6.4535634848       -2.3559595568       -2.6556163063
 H         -6.4396309122       -0.6573302869       -3.1822053127
 H         -7.9647889871       -1.4335893023       -2.7741533533
 H         -7.6081379563       -2.2021110751        0.3273396229
 H         -8.0927693619       -0.4962243472        0.4505270488
 H         -8.7608584293       -1.5066417105       -0.8255394226
 H         -6.2060837267       -0.4244981458        1.4208215838
 H         -4.0220020001        0.1271330103        2.3186401533
 H          5.7024326051        3.0341742777       -1.8577385493
 H          5.1948784388        2.2106894198       -0.3843015709
 H          6.3658999708        1.4539907632       -1.4708110349
 H          6.6608916206        1.0891905390       -3.7871624687
 H          5.9712553847        2.6643409596       -4.1612878497
 H          5.7757252131        1.3264110276       -5.2972308378
 H          3.6815915104        0.3871546202       -5.3462013807
 H          0.8427317876       -1.2807111217       -4.0561033966
 H          0.4098499905        0.3016464007       -4.7048165632
 H          1.6279960838       -0.6761098122       -5.5238318146
 H          0.6347919700        0.8394292071       -0.8452211276
 H         -0.0201621092        0.5276064922       -2.4477921102
 H         -1.0705735278       -3.1670310595        0.8914783588
 H         -1.2140840751       -5.4244425057        1.7718389338
 H          2.1189725768       -8.2459901398        0.6970450165
 H          0.8872395087       -9.4969075818        0.9392977617
 H          1.0288468765       -8.7101036051       -0.6287970005
 H         -0.5322312980       -8.8784166681        2.3423690703
 H         -0.1027409399       -7.2715449026        2.9546991874
 H         -1.6092741610       -7.5188075689        2.0433397644
 H          1.6562620528       -6.7157691471       -1.1523767873
 H          1.7773714045       -4.4543979124       -2.0105900583
 H          4.7542775550        0.5031572478        1.6769263885
 H          5.6821774627        1.5526514012        2.7466703554
 H          4.2142448571        0.7748267441        3.3287407325
  130
  -171.051552601100       4.371076865968740E-002 !
 C         -2.7763640016        1.8012256670        3.9747172135
 C         -2.4895291643        1.7496713908        2.5038958082
 C         -3.2406441880        2.5232781622        1.6366455846
 C         -3.0123058295        2.5114403871        0.2707388442
 C         -3.8466781048        3.3769804962       -0.6286906080
 C         -2.0047106976        1.6942985100       -0.2352059566
 C         -1.8061910631        1.6541074731       -1.7356740684
 C         -1.0107227632        2.7830199307       -2.1755767039
 C         -0.3125780037        3.7035171077       -2.5105942201
 C          0.5525469391        4.7487412426       -2.9016232334
 C          0.5853655458        5.9577455602       -2.2093050998
 C          1.4633169207        6.9572826666       -2.5690241188
 C          2.3557269812        6.7928669906       -3.6380287849
 N          3.2729906875        7.7717789438       -3.9622727119
 C          3.1271893138        9.0918101359       -3.3974801179
 C          4.0373295734        7.6527845199       -5.1797133083
 C          2.3027317160        5.5785928170       -4.3376191984
 C          1.4242432907        4.5814508458       -3.9760749015
 C         -1.2030387055        0.9143512197        0.6149394394
 B         -0.0082944514        0.0598237163        0.0315012696
 C          0.1538261013       -1.4631002854        0.4227786289
 C          1.3793175123       -1.9627941370        0.8975268781
 C          2.5821241683       -1.0784432133        1.0589206785
 C          1.5070008199       -3.3035893723        1.2612832976
 C          2.8092617533       -3.8522306705        1.7630301141
 C          0.4078620366       -4.1391967773        1.1685320604
 C         -0.8155128040       -3.6809255988        0.7094069522
 C         -1.9811685135       -4.6246174771        0.6389384674
 C         -0.9327092665       -2.3478257847        0.3237376496
 C         -2.2678525072       -1.8764853279       -0.2122565976
 C         -3.1663494255       -1.5811236948        0.8861773331
 C         -3.8667252479       -1.3070160997        1.8249871093
 C         -4.6742647602       -0.9440691768        2.9250195813
 C         -5.6156294828        0.0781685735        2.8096431760
 C         -6.3749208032        0.4643334494        3.8912912271
 C         -6.2313160527       -0.1596522406        5.1392336075
 N         -6.9847626244        0.2299682963        6.2196214322
 C         -8.1737313447        1.0256083867        6.0512025330
 C         -6.6474751916       -0.1871578280        7.5556549344
 C         -5.2867443364       -1.1904978134        5.2445369007
 C         -4.5248112624       -1.5709799952        4.1614736179
 C          1.0437495135        0.7340168866       -0.9368671572
 C          1.6896191314        1.9323291151       -0.5865297562
 C          1.3963294546        2.6391403734        0.7053722945
 C          2.6514808065        2.4931920760       -1.4273156038
 C          3.3474300435        3.7714122831       -1.0668045510
 C          2.9770492212        1.8513591323       -2.6091532271
 C          2.3576111197        0.6724836635       -2.9887367324
 C          2.7473715556        0.0121899631       -4.2796275047
 C          1.3828105292        0.1271618883       -2.1571659661
 C          0.6819986099       -1.1350638784       -2.6135182202
 C          1.4963884619       -2.3001704733       -2.3320100559
 C          2.1731227988       -3.2534531936       -2.0486934539
 C          2.9316794952       -4.3833894481       -1.6718888957
 C          4.3233947491       -4.3258497973       -1.5957595621
 C          5.0512664445       -5.4195928569       -1.1839324290
 C          4.4233880747       -6.6248817776       -0.8425498881
 N          5.1706257070       -7.6928022603       -0.3709317280
 C          4.5032473751       -8.8314736332        0.2079326289
 C          6.4325899819       -8.0328933803       -0.9853349508
 C          3.0266179969       -6.6726326532       -0.9229418876
 C          2.2973964168       -5.5750676704       -1.3272048437
 C         -1.4662999506        0.9484388737        1.9955323860
 C         -0.6489351380        0.1591682234        2.9767609274
 H         -3.6721693198        2.3870508646        4.1668428452
 H         -1.9450063095        2.2565046214        4.5147897979
 H         -2.9293912128        0.8009286968        4.3753062058
 H         -4.0254275310        3.1519895214        2.0356070101
 H         -4.4610827113        4.0529972209       -0.0382897560
 H         -3.2146230577        3.9677653931       -1.2905262554
 H         -4.5113147960        2.7706263670       -1.2464059969
 H         -1.2884704912        0.7420656763       -2.0354106083
 H         -2.7760573365        1.6739611511       -2.2430366416
 H         -0.0874462965        6.1103553549       -1.3763920782
 H          1.4507253499        7.8740135467       -2.0021394149
 H          3.9028028340        9.7425197396       -3.7955069126
 H          3.2475780198        9.0554888846       -2.3124455999
 H          2.1513842595        9.5378911860       -3.6270847563
 H          3.4017302434        7.6300005544       -6.0744400384
 H          4.7161294103        8.4990366605       -5.2631078246
 H          4.6417950876        6.7438485979       -5.1579325395
 H          2.9541324994        5.4018429314       -5.1780670818
 H          1.4094254204        3.6518718489       -4.5262276809
 H          2.3319907767       -0.0290854597        0.9638921095
 H          3.3202543525       -1.3229309207        0.2943115330
 H          3.0448276440       -1.2368427263        2.0324489103
 H          3.0599718490       -3.4267403542        2.7357809712
 H          3.6191554119       -3.6188608134        1.0745869661
 H          2.7512902973       -4.9331757856        1.8671071553
 H          0.5075822199       -5.1755950063        1.4621881331
 H         -2.8523719935       -4.1997168987        1.1359277053
 H         -1.7320211527       -5.5684785770        1.1186971708
 H         -2.2507088967       -4.8342577029       -0.3976091764
 H         -2.1533543854       -0.9701190314       -0.8077988072
 H         -2.7123453441       -2.6471662482       -0.8499500316
 H         -5.7329116326        0.5802097373        1.8602933809
 H         -7.0752393086        1.2755944337        3.7687753735
 H         -8.7098422536        0.7253790337        5.1493311661
 H         -7.9467028682        2.0971563826        5.9837345859
 H         -8.8361555765        0.8683872453        6.9016017451
 H         -5.5655613085       -0.1681308830        7.6974843398
 H         -7.0900053967        0.5055525679        8.2698592757
 H         -7.0127247013       -1.1976801357        7.7809170517
 H         -5.1543902331       -1.7135927647        6.1785255275
 H         -3.8012342215       -2.3677333855        4.2676033718
 H          0.8669877017        3.5699124586        0.4991502107
 H          0.7824006523        2.0410480225        1.3673300460
 H          2.3220091864        2.8898323920        1.2229295195
 H          3.9841454434        3.6326953229       -0.1919527509
 H          2.6258381050        4.5530694061       -0.8371190615
 H          3.9678929300        4.1121682481       -1.8922225239
 H          3.7311351902        2.2834332730       -3.2532410144
 H          1.9381805983        0.0762485229       -5.0091390789
 H          3.6217604806        0.5002719687       -4.7042736966
 H          2.9773632075       -1.0407047986       -4.1213795132
 H         -0.2706017840       -1.2609213862       -2.0971436849
 H          0.4803670392       -1.0844419416       -3.6883882082
 H          4.8310159063       -3.4050174942       -1.8482455014
 H          6.1241404441       -5.3284435255       -1.1013850623
 H          4.0443602491       -9.4897214708       -0.5437152627
 H          5.2399123669       -9.4125959836        0.7643038751
 H          3.7367648874       -8.4975176530        0.9051798062
 H          6.3256894472       -8.9102466546       -1.6370489496
 H          6.8055415416       -7.2109496905       -1.5879875109
 H          7.1713932232       -8.2674464491       -0.2139711944
 H          2.4975033472       -7.5809688147       -0.6805627470
 H          1.2199471004       -5.6318552292       -1.3804382916
 H         -1.2655746650       -0.6253643179        3.4161493456
 H          0.2100083388       -0.3073309100        2.5105167814
 H         -0.2993881111        0.8004868045        3.7858371279
  130
  -171.051102595200       2.715063873186409E-002 !
 C         -2.6961024760        1.6978744223        4.0076934383
 C         -2.4323659879        1.6905962799        2.5315477004
 C         -3.2084985549        2.4759556957        1.6974935644
 C         -3.0009673491        2.5061946579        0.3284879306
 C         -3.8604476346        3.3862604826       -0.5324457188
 C         -1.9916557992        1.7163571026       -0.2160975518
 C         -1.8106960585        1.7261874422       -1.7193272219
 C         -1.0256773241        2.8754483622       -2.1237336430
 C         -0.3347702766        3.8141199568       -2.4211759059
 C          0.5229595130        4.8809700950       -2.7676936622
 C          1.4059214687        4.7616280510       -3.8395727827
 C          2.2787673914        5.7791778141       -4.1544464585
 C          2.3149020224        6.9665133809       -3.4087139635
 N          3.2283845549        7.9629248261       -3.6874146171
 C          3.0849067409        9.2515528411       -3.0541000321
 C          3.9793855848        7.9108387688       -4.9182365717
 C          1.4111172447        7.0829682907       -2.3431828869
 C          0.5384993296        6.0631140578       -2.0300302061
 C         -1.1684769127        0.9220230328        0.5994381838
 B          0.0137390391        0.0798429293       -0.0266688041
 C          0.1723338705       -1.4508856411        0.3353938740
 C          1.3998986402       -1.9660423117        0.7872521574
 C          2.6128069923       -1.0944816548        0.9418519498
 C          1.5210870345       -3.3118935422        1.1339126380
 C          2.8246544834       -3.8761845650        1.6143919874
 C          0.4153150582       -4.1386914752        1.0427115247
 C         -0.8090226715       -3.6661644074        0.6014215752
 C         -1.9815960787       -4.6008825282        0.5284582419
 C         -0.9209979947       -2.3268080535        0.2363111626
 C         -2.2603761311       -1.8394745074       -0.2744580055
 C         -3.1442461531       -1.5792150991        0.8442232376
 C         -3.8261481743       -1.3421583778        1.8062263376
 C         -4.6089366525       -1.0340360536        2.9402387096
 C         -4.4372846953       -1.7286618893        4.1363072833
 C         -5.1754890069       -1.4082994723        5.2549191881
 C         -6.1203047924       -0.3728097450        5.2312735534
 N         -6.8250629630       -0.0165771504        6.3633359821
 C         -6.7754985406       -0.8692129257        7.5259944607
 C         -7.9600844754        0.8659396180        6.2394767810
 C         -6.2917695073        0.3125975985        4.0196639377
 C         -5.5523399405       -0.0090109137        2.9031241072
 C          1.0528408889        0.7628172423       -1.0021726301
 C          1.7150396974        1.9501086500       -0.6442367632
 C          1.4445049621        2.6455120002        0.6585881152
 C          2.6765456521        2.5090492109       -1.4870250724
 C          3.3958175029        3.7707972534       -1.1142426454
 C          2.9826830964        1.8782136712       -2.6799395422
 C          2.3445098154        0.7122142499       -3.0686659175
 C          2.7153129599        0.0619157171       -4.3701067463
 C          1.3713089564        0.1682592749       -2.2343954409
 C          0.6484378302       -1.0775117100       -2.7011849295
 C          1.4468127334       -2.2596530963       -2.4440980514
 C          2.1070805092       -3.2301724459       -2.1813430559
 C          2.8494784793       -4.3779092564       -1.8266704980
 C          4.2407836141       -4.3476854539       -1.7569869120
 C          4.9555702253       -5.4586723093       -1.3638468254
 C          4.3113796027       -6.6572030661       -1.0259035276
 N          5.0275529647       -7.7817505027       -0.6685118943
 C          6.4356369644       -7.6608759118       -0.3779374056
 C          4.3321600609       -8.9161161552       -0.1107588672
 C          2.9110594548       -6.6767581664       -1.1016809095
 C          2.1994315010       -5.5656144715       -1.4956552875
 C         -1.4068726450        0.9183002996        1.9848718111
 C         -0.5586086888        0.1167139032        2.9294975943
 H         -1.8667404437        2.1589036408        4.5459223075
 H         -2.8197824038        0.6846141994        4.3848960271
 H         -3.6014478798        2.2578353059        4.2293667701
 H         -3.9960666037        3.0816253286        2.1256367092
 H         -4.5243783128        2.7893042595       -1.1599857594
 H         -4.4767994035        4.0340138098        0.0869256740
 H         -3.2464300617        4.0072532043       -1.1835088512
 H         -1.2898054383        0.8287720375       -2.0556582205
 H         -2.7856020852        1.7577543149       -2.2160507799
 H          1.4048065693        3.8527313484       -4.4233346653
 H          2.9409218315        5.6396906373       -4.9934148946
 H          3.1855639267        9.1534100253       -1.9712158945
 H          2.1180838452        9.7209782442       -3.2753097349
 H          3.8748007651        9.9140421820       -3.4014173130
 H          3.3318964009        7.9101117538       -5.8043496504
 H          4.6378458259        8.7749175444       -4.9758005066
 H          4.6040527142        7.0156300561       -4.9422790623
 H          1.3836553723        7.9776202666       -1.7426423031
 H         -0.1428486905        6.1783310692       -1.1981438674
 H          3.0784281615       -1.2559152594        1.9135990644
 H          2.3742321007       -0.0426850024        0.8454434342
 H          3.3447734736       -1.3485841032        0.1745922193
 H          3.6250464815       -3.6516835723        0.9120005053
 H          2.7545023635       -4.9563992859        1.7184526278
 H          3.0969078494       -3.4542590585        2.5827668720
 H          0.5105024819       -5.1793964161        1.3222338668
 H         -2.2658618962       -4.7889618152       -0.5082066946
 H         -2.8435619552       -4.1796132919        1.0443036341
 H         -1.7327506825       -5.5552378298        0.9871267125
 H         -2.1520147899       -0.9161459410       -0.8441205925
 H         -2.7116859045       -2.5916092605       -0.9293864194
 H         -3.7123414304       -2.5296251068        4.1844946920
 H         -5.0071326063       -1.9772634787        6.1546746307
 H         -7.1497682374       -1.8804766759        7.3211600180
 H         -7.3805676590       -0.4334477468        8.3181781760
 H         -5.7506671017       -0.9443574663        7.8946113660
 H         -8.7221741349        0.4721029795        5.5553834080
 H         -8.4164653035        1.0059409578        7.2168458516
 H         -7.6403725423        1.8457073175        5.8785944379
 H         -7.0102554919        1.1122048867        3.9411991105
 H         -5.6980700158        0.5389675460        1.9836191621
 H          0.8048010352        2.0612349130        1.3080969653
 H          2.3775098696        2.8507384267        1.1832179147
 H          0.9537319024        3.5999864093        0.4666402865
 H          2.6894820519        4.5629035552       -0.8731632713
 H          4.0205537165        4.1096283603       -1.9372090651
 H          4.0318245920        3.6101905475       -0.2426472434
 H          3.7372930028        2.3078802502       -3.3251784930
 H          1.9026400875        0.1472475351       -5.0935015800
 H          3.5945617660        0.5412528341       -4.7947104504
 H          2.9297753319       -0.9962363534       -4.2257858836
 H         -0.3018352478       -1.1953264514       -2.1784975100
 H          0.4380478547       -1.0085502270       -3.7734162021
 H          4.7649095024       -3.4352383094       -2.0066659015
 H          6.0298070677       -5.3822899173       -1.3190186725
 H          6.6347508180       -6.9577073015        0.4408086527
 H          6.8308176529       -8.6346500101       -0.0967506629
 H          6.9775499007       -7.3260658363       -1.2649362559
 H          5.0492828425       -9.7009153281        0.1201224944
 H          3.7890942181       -8.6635195195        0.8089500050
 H          3.6219022107       -9.3185288947       -0.8358886898
 H          2.3617176934       -7.5688231183       -0.8480007267
 H          1.1207522854       -5.6042843876       -1.5384800477
 H         -0.2310462714        0.7340157714        3.7656470343
 H         -1.1443291943       -0.7094692120        3.3336723441
 H          0.3162129160       -0.2951764453        2.4417810562
