  61
       -105.47775233
 C         -6.3697923235        2.5392832155       -2.6076451327
 C         -4.9876249831        2.6204012803       -2.6041341359
 C         -4.2442993130        1.8907483827       -1.6942861964
 C         -4.8746379461        1.0675439751       -0.7643370411
 C         -6.2773249953        0.9775043737       -0.7880788946
 C         -7.0133539917        1.7123555866       -1.7013108771
 O         -6.9681482385        0.1657162041        0.0693700966
 C         -6.2462779142       -0.5779046891        0.9626344018
 C         -6.9508854258       -1.4087370136        1.8165960837
 C         -6.2763097479       -2.1754319004        2.7529007149
 C         -4.8963694849       -2.1008450890        2.8385764918
 C         -4.1842281286       -1.2731713169        1.9897853681
 C         -4.8441686211       -0.5077023468        1.0313627894
 N         -4.1612815861        0.3279504864        0.1636704173
 C         -2.7425265688        0.3940809180        0.2008214979
 C         -2.1250514145        1.5288454560        0.7220989747
 C         -0.7475272138        1.6735137436        0.7908616286
 C          0.0479151498        0.6297203559        0.3124285660
 C         -0.5876310028       -0.5220821622       -0.2160251683
 C          0.3405221637       -1.4906460588       -0.6644531304
 C         -0.1403601409       -2.6764179052       -1.2165644168
 C         -1.5176322550       -2.8463193494       -1.3033249532
 C         -2.4279517530       -1.8963979271       -0.8651777849
 C         -1.9746591125       -0.6898447280       -0.2968984549
 C          1.6330177896       -0.9481002938       -0.4160804770
 N          2.8339955469       -1.3874167223       -0.6225541315
 C          3.8944068913       -0.6592106076       -0.2950547439
 C          5.2150961639       -1.1484679396       -0.5288517445
 C          5.4369952609       -2.4098496992       -1.1043200964
 C          6.7280321743       -2.8351960244       -1.3103398186
 C          7.7744401020       -1.9891682149       -0.9364375424
 N          7.5886124327       -0.8067923984       -0.3966027315
 C          6.3490896224       -0.3754142110       -0.1879694504
 C          6.1673317213        0.9366417667        0.4109350755
 N          7.2505398594        1.6429806923        0.7198457919
 C          7.1080963248        2.8306705915        1.2617999326
 C          5.8665302193        3.4051175365        1.5382492930
 C          4.7320532136        2.6918210092        1.2264598913
 C          4.8609202861        1.4214619030        0.6459668563
 C          3.7119710579        0.6410881034        0.3005449934
 N          2.4916052312        1.1025016931        0.5190021404
 C          1.4432782973        0.4000122914        0.2034243187
 H         -6.9491322989        3.1097934631       -3.3160663387
 H         -4.4794035375        3.2533720746       -3.3148098515
 H         -3.1675336140        1.9480275202       -1.6988820011
 H         -8.0873739518        1.6192885920       -1.6871850047
 H         -8.0253003637       -1.4381752232        1.7322065698
 H         -6.8308563599       -2.8222491344        3.4138432719
 H         -4.3656621607       -2.6883294688        3.5714374039
 H         -3.1102120949       -1.2127968709        2.0622226758
 H         -2.7584580600        2.3247152263        1.0896311673
 H         -0.3077359154        2.5665577786        1.2048549324
 H          0.5351910938       -3.4397476242       -1.5692164343
 H         -1.8982970292       -3.7622731602       -1.7331685034
 H         -3.4869249950       -2.0863040164       -0.9617803907
 H          4.5820902419       -3.0138645315       -1.3704680338
 H          6.9349827033       -3.7985119789       -1.7501164446
 H          8.8060966669       -2.2814167810       -1.0801954050
 H          8.0273383148        3.3540232391        1.4888737150
 H          5.8044375639        4.3850994335        1.9853942802
 H          3.7406561389        3.0773206916        1.4134837817
