61
 energy: -105.571706194100 gnorm: 0.000032676652 xtb: 6.7.1 (edcfbbe)
C           -6.09294236422617        0.20131958413252       -3.57886874546013
C           -4.71531571120122        0.27569418980652       -3.61205418975275
C           -3.98824590089248        0.32558797146288       -2.43137279267970
C           -4.63381458821250        0.30221823141619       -1.20248987961967
C           -6.03275910077332        0.22458007197351       -1.17720953431899
C           -6.75144274025771        0.17518970884522       -2.35617126431562
O           -6.74772697592129        0.19423431285237        0.00010781770388
C           -6.03280255831499        0.22490263105284        1.17744382606000
C           -6.75152771836444        0.17575554209327        2.35639007270560
C           -6.09307134713126        0.20214696416054        3.57910540046736
C           -4.71544482341339        0.27650892662484        3.61232386753244
C           -3.98833340006462        0.32615473910926        2.43165823396723
C           -4.63386019952199        0.30257325475766        1.20275732721194
N           -3.93188337523578        0.35190044098151        0.00014033325810
C           -2.51663087911406        0.44045322940275        0.00014203181142
C           -1.90627970298166        1.67808531120609        0.00054638116007
C           -0.51011857173544        1.84082599481890        0.00054620613475
C            0.27495702159892        0.71430491747697        0.00014940647651
C           -0.35132950443093       -0.55510084440748       -0.00022470505496
C            0.58399898301642       -1.61737070899749       -0.00053553202626
C            0.11980538083169       -2.90947403778518       -0.00086502872810
C           -1.27232093478527       -3.11895523424607       -0.00088699824325
C           -2.18141544312216       -2.08777113808988       -0.00060196537312
C           -1.73482549863974       -0.74669110616546       -0.00025822930167
C            1.89290973966453       -0.98206892714102       -0.00036414050700
N            3.08462944557116       -1.52862528249297       -0.00049585968019
C            4.12460358205039       -0.67273354606681       -0.00025246435922
C            5.45700834288955       -1.22042788639490       -0.00033819921062
C            5.68244189454243       -2.60340929064803       -0.00065192878966
C            6.97681703340295       -3.07016541371833       -0.00068289240122
C            8.01540089833311       -2.13540743273122       -0.00039683455548
N            7.82784711980523       -0.83713105091869       -0.00011775632783
C            6.57914793476242       -0.36521509373870       -0.00008395824354
C            6.38787968830459        1.07233221183932        0.00022597801677
N            7.46960773342633        1.85447818140630        0.00041500271164
C            7.31123503376629        3.15658499663822        0.00067804633878
C            6.06430654163870        3.78718610569619        0.00078468428252
C            4.93707691165267        2.99815930664067        0.00060347680314
C            5.08129906138081        1.60440629751749        0.00031187005034
C            3.93851160512056        0.72740132231430        0.00010093158601
N            2.71117934389202        1.28187284957306        0.00025990288220
C            1.70394450312352        0.44260778919353        0.00004199857194
H           -6.66391637365242        0.16345487002855       -4.49323280751140
H           -4.19165012409617        0.29575753180649       -4.55556071474693
H           -2.91086723073161        0.38301017665103       -2.46155565886861
H           -7.82716107920419        0.11746527279682       -2.29897564366770
H           -7.82724285207186        0.11799720670656        2.29916752968266
H           -6.66407700126747        0.16446382036870        4.49345712405547
H           -4.19181034199105        0.29673223027978        4.55584426916082
H           -2.91095218930434        0.38351772806482        2.46186509139305
H           -2.53366065292748        2.55791733683253        0.00085905855439
H           -0.07987363176282        2.82996820954066        0.00084065952313
H            0.79728356279276       -3.74922724765376       -0.00109256813873
H           -1.63515651061206       -4.13615828310224       -0.00112602224017
H           -3.24069787370179       -2.29767947434863       -0.00062594450009
H            4.83182291557611       -3.26799922806415       -0.00085163294915
H            7.19154118170134       -4.12719696467797       -0.00091449769299
H            9.05005141826666       -2.45395268539311       -0.00040621606218
H            8.22662588911580        3.73452409424978        0.00082442384762
H            5.99503945430341        4.86356063071732        0.00100271502075
H            3.94218697914221        3.41692968573088        0.00066893834424
