61
 energy: -105.522583036365 gnorm: 0.000042741943 xtb: 6.7.1 (edcfbbe)
C           -6.38054043530286        2.55148107916392       -2.59657315290218
C           -4.99676733650326        2.64209976822337       -2.58956363714630
C           -4.24977261712760        1.90763522061467       -1.68793049433550
C           -4.87645052674259        1.06907168500905       -0.76666516730284
C           -6.28026811277178        0.96990838681914       -0.79470706837814
C           -7.02080412132326        1.71046374245774       -1.70222579662224
O           -6.96526796651121        0.14433018867505        0.05164974696798
C           -6.24544787742634       -0.58847366854611        0.95273458882943
C           -6.94975224879783       -1.42025054160596        1.80857803901280
C           -6.27407778217766       -2.17464818505168        2.75277689727244
C           -4.89334506353082       -2.08671791937310        2.84804147278632
C           -4.18235848778931       -1.25990059243947        1.99890195551338
C           -4.84247650948871       -0.50737852555487        1.02802969546830
N           -4.16179359128984        0.32419312370894        0.15560372936172
C           -2.74255101235435        0.39049561392086        0.19186117380767
C           -2.12470525110059        1.52631743456411        0.71258865377284
C           -0.74720685996734        1.67082338457266        0.78208938493947
C            0.04956848514089        0.62657129182328        0.30522782095801
C           -0.58601222057981       -0.52669331132664       -0.22200021617017
C            0.34353471354730       -1.49650026683226       -0.66671545143755
C           -0.13652486578239       -2.68405919285029       -1.21683923882921
C           -1.51393986897110       -2.85483881374080       -1.30527981706066
C           -2.42499977021471       -1.90336330680750       -0.87107380736404
C           -1.97368064904895       -0.69508761003612       -0.30389257148486
C            1.63580100297593       -0.95029272381239       -0.41575813382155
N            2.83732962964076       -1.39903667143754       -0.62182659357816
C            3.89558060303389       -0.66204340733649       -0.29074751096157
C            5.21683351013961       -1.15302088293142       -0.52428133486168
C            5.44089860804779       -2.41525731891961       -1.09845965630464
C            6.73267375674886       -2.84040329145444       -1.30326050021703
C            7.77720022971492       -1.99338141680865       -0.92781388002879
N            7.59096947419383       -0.80853775774221       -0.38942341134530
C            6.34905649039752       -0.37734982253549       -0.18374885780782
C            6.16594264754098        0.93631799877493        0.41077382153522
N            7.24992292810716        1.64646813355691        0.71581730364176
C            7.10470010702651        2.83709088923570        1.25471245887107
C            5.86331704796658        3.40981907136559        1.53292610925705
C            4.72973365770272        2.69263099924485        1.22430390509024
C            4.85978301749567        1.42102864991532        0.64596198224087
C            3.71211975495468        0.63651538743126        0.29979186932177
N            2.49106492011907        1.10618994978944        0.51740445634975
C            1.44549802859984        0.39404630745895        0.19718646695712
H           -6.96151724477142        3.12692978505504       -3.29939647900486
H           -4.49223665415207        3.28669379293394       -3.29222250205336
H           -3.17350922203088        1.97276095864615       -1.68986698285757
H           -8.09428221578284        1.60934373373367       -1.69119141209214
H           -8.02351628058480       -1.45855170236269        1.71777244897058
H           -6.82649773685118       -2.82228202572539        3.41467988860054
H           -4.36325752872663       -2.66375564986914        3.58946238271353
H           -3.10947391787694       -1.18933681128166        2.07872434229636
H           -2.75625545881642        2.32265813369975        1.08142952219119
H           -0.30726280529703        2.56426688522219        1.19560877520626
H            0.54031828276601       -3.44827961403010       -1.56626647141260
H           -1.89336912314248       -3.77222447317541       -1.73311295053333
H           -3.48325806312938       -2.09573886976602       -0.96914328302167
H            4.58756346767158       -3.02125008118339       -1.36553260807403
H            6.94067835033251       -3.80382114089533       -1.74208613367116
H            8.81027214836067       -2.28338857211064       -1.06786397679137
H            8.02506443443070        3.36121620751280        1.47718324952533
H            5.79976520717675        4.39053575869588        1.97791674214683
H            3.73829125043467        3.07740575035758        1.41272909127280
