61
 energy: -105.522629634294 gnorm: 0.000042721742 xtb: 6.7.1 (edcfbbe)
C           -6.27693152316315        2.35794415583627        2.63036785914875
C           -4.89451957110254        2.29015314088568        2.71720286416200
C           -4.18319831617241        1.41486002054752        1.91838882514266
C           -4.84484875473085        0.59114597809390        1.00831202207487
C           -6.24917280260818        0.65470316728800        0.94047554419887
C           -6.95371256632668        1.53538937666744        1.74569830870191
O           -6.96996079097825       -0.14317718422979        0.09716029590480
C           -6.28422858920761       -1.01297982304618       -0.70310834243951
C           -7.02448027060994       -1.81463195008421       -1.55738185947956
C           -6.38287053900657       -2.70240273377353       -2.40440305807277
C           -4.99826371859901       -2.78023206668567       -2.40309383857201
C           -4.25160309292153       -1.98580012747684       -1.55357945782636
C           -4.87942640749803       -1.09836304801934       -0.68016595640898
N           -4.16445057370195       -0.29316763804065        0.18937976138845
C           -2.74511674452992       -0.36017327098466        0.23001938716466
C           -2.13130638247650       -1.45562551053242        0.83511532330639
C           -0.75428047262656       -1.60004198431096        0.91371562548408
C            0.04587965658789       -0.59817993434367        0.35822574632052
C           -0.58572164253121        0.51473069349513       -0.25353688791490
C            0.34699717223904        1.44436838564742       -0.77122141879984
C           -0.12940599016540        2.58774860976384       -1.41081667237609
C           -1.50631318431231        2.75620291249602       -1.51162918423248
C           -2.42051844266150        1.84441754364736       -1.00505175305544
C           -1.97284129623474        0.68164036937610       -0.34720463888477
C            1.63747340143019        0.91383563274538       -0.48038244793624
N            2.84055927871771        1.34311970259653       -0.71661852317940
C            3.89625439935255        0.62676842367198       -0.33585278079952
C            5.21928209992201        1.09850691582927       -0.59724908148968
C            5.44794843598987        2.32479354520191       -1.24302425388165
C            6.74132017421735        2.73451384935643       -1.46820328759099
C            7.78278718946926        1.90848310234542       -1.04104706199333
N            7.59225048553359        0.75641487312872       -0.43695830411831
C            6.34868410404250        0.34017853038889       -0.21120730704290
C            6.16073478024674       -0.93763896664743        0.45554104558996
N            7.24197025463346       -1.63581113167705        0.79555824715825
C            7.09235420307085       -2.79450150677370        1.39890064645261
C            5.84894547520509       -3.34517849358671        1.71062014705636
C            4.71805834945166       -2.63922097168365        1.36799819222473
C            4.85288955005559       -1.40099699742174        0.72223848481269
C            3.70822890522772       -0.63011332752026        0.33757527260488
N            2.48565705378960       -1.07623545795744        0.59267992292287
C            1.44255774502122       -0.38137943627349        0.22929765111166
H           -6.82977200971797        3.04315262994437        3.25289796593314
H           -4.36323578355033        2.92156026974277        3.41203330403838
H           -3.10890206923832        1.36040128867721        1.99130250087478
H           -8.02860017079176        1.55768057297965        1.66318299502794
H           -8.09880189730303       -1.72328028829770       -1.54370029366356
H           -6.96370154873396       -3.32487968243492       -3.06608828837916
H           -4.49290851249702       -3.46175107116619       -3.06937465329224
H           -3.17481787741776       -2.04162905437745       -1.55929633210233
H           -2.76569586420681       -2.21951467088499        1.26301535122399
H           -0.31724380025302       -2.46166109581409        1.39275166007093
H            0.54981788376092        3.32025077519161       -1.81868652661043
H           -1.88246953180020        3.63946878116795       -2.00862185178340
H           -3.47826597217117        2.03219718230257       -1.11677964586925
H            4.59673258990815        2.91670436748704       -1.54612138895648
H            6.95303606965893        3.67062849284389       -1.96102488833165
H            8.81692006508123        2.18843603340841       -1.19321993812289
H            8.01076990064189       -3.31081416439711        1.64633223672482
H            5.78182123320567       -4.30088443008783        2.20654883339995
H            3.72516925115045       -3.00827740410303        1.57906975796759
