  118
       -187.45399600
 C          5.7508780668        5.5511015925        0.1207573421
 C          6.9709472263        5.3745324610       -0.5122857297
 C          7.5852854628        4.1379696170       -0.5021553481
 C          6.9847646772        3.0545428951        0.1400445383
 C          7.6757873808        1.7744981510        0.1076702486
 N          8.9809344831        1.6597333632        0.1171058613
 C          9.2426800714        0.3281005307        0.0760185359
 C         10.5134195407       -0.3160626299        0.0832042566
 C         11.7131827759        0.3821291820        0.1550690055
 C         12.9169468416       -0.3016771266        0.1673782769
 C         12.9357226686       -1.6808198905        0.1054594911
 C         11.7482175813       -2.4143013169        0.0283741759
 C         11.7548008350       -3.8373441429       -0.0465031747
 C         10.6014442024       -4.5356610789       -0.1421286565
 C          9.3364869829       -3.8779606612       -0.1674068383
 C          8.1486495024       -4.6038894311       -0.2906304534
 C          6.9320785049       -3.9570382056       -0.3381034453
 C          6.8639363756       -2.5775763459       -0.2406960951
 C          8.0208930434       -1.8155483237       -0.0904484145
 C          9.2893673493       -2.4650844696       -0.0742785647
 C         10.5065644844       -1.7318025313        0.0177814104
 C          8.0504107696       -0.3964957568        0.0270027229
 N          7.0515358463        0.5470933041        0.0574217443
 C          5.6567126002        0.3670984558        0.0096142003
 C          4.9461373328        0.8420507286       -1.0862981925
 C          3.5675382157        0.7682677708       -1.0937087521
 C          2.8804268662        0.2212148147       -0.0136843216
 C          1.4042172045        0.2201176484       -0.0012887597
 C          0.6957895067       -0.9872133889       -0.0672172091
 C          1.3578455011       -2.2392028069       -0.1683158584
 C          0.6580418309       -3.4036224152       -0.2442426493
 C         -0.7511616649       -3.3879316239       -0.2411364027
 C         -1.4242166925       -2.2080211333       -0.1641551727
 C         -0.7335976245       -0.9712109106       -0.0673073882
 C         -1.4149288318        0.2517772471       -0.0062863055
 C         -2.8911765206        0.2802435494       -0.0251125232
 C         -3.5658541071        0.8007645097       -1.1256146908
 C         -4.9446876982        0.8719633397       -1.1363917641
 C         -5.6674603750        0.4240913992       -0.0369659751
 N         -7.0656527332        0.5768712485       -0.0192622014
 C         -7.7201442466        1.7887620979       -0.0533404353
 C         -7.0561107610        3.0828709560       -0.0981714006
 C         -7.6560792475        4.1047661477       -0.8340480386
 C         -7.0624982957        5.3489573104       -0.9163016081
 C         -5.8653464987        5.5938935604       -0.2627152166
 C         -5.2779258391        4.5928440886        0.4924141710
 C         -5.8679420813        3.3457071915        0.5816650692
 N         -9.0218560341        1.6433368703       -0.0403379365
 C         -9.2509130896        0.3054836665        0.0086166791
 C        -10.5055578201       -0.3673333722        0.0640686763
 C        -11.7221039766        0.3045580775        0.0893140324
 C        -12.9084799436       -0.4057475357        0.1588078887
 C        -12.8932484675       -1.7856397714        0.2003385338
 C        -11.6882025780       -2.4935528966        0.1710369892
 C        -11.6599065541       -3.9179678849        0.2011264576
 C        -10.4902042468       -4.5930931927        0.1469236152
 C         -9.2422862135       -3.9083408535        0.0633405516
 C         -8.0380403980       -4.6125046938       -0.0205459785
 C         -6.8387062036       -3.9412987112       -0.1280474152
 C         -6.8039584247       -2.5571720811       -0.1263761177
 C         -7.9775018369       -1.8141614652       -0.0136491531
 C         -9.2294513748       -2.4916491336        0.0564715033
 C        -10.4639561424       -1.7835198599        0.1030416189
 C         -8.0413109677       -0.3912896992        0.0111843245
 C         -5.0040682238       -0.1131975499        1.0622802109
 C         -3.6251555435       -0.1872521304        1.0618017017
 C         -0.7067833251        1.4601431279        0.0682447513
 C         -1.3710137896        2.7116626214        0.1668140738
 C         -0.6721382895        3.8759140730        0.2543293422
 C          0.7366462572        3.8601149297        0.2650602077
 C          1.4114967757        2.6811978547        0.1846816553
 C          0.7223150943        1.4442265207        0.0739237063
 C          3.6033935736       -0.2855885344        1.0632156359
 C          4.9823675161       -0.2124088327        1.0804257593
 C          5.7732044595        3.2479431238        0.8017925114
 C          5.1619944841        4.4880478552        0.7842968155
 H          5.2667336225        6.5162870117        0.1073281211
 H          7.4427446270        6.2046751607       -1.0167517207
 H          8.5359170377        3.9848201975       -0.9884608154
 H         11.6786251810        1.4591996213        0.2037502723
 H         13.8458168377        0.2468693222        0.2253587799
 H         13.8769947576       -2.2120453744        0.1130964137
 H         12.7093450654       -4.3442022878       -0.0306823559
 H         10.6111649394       -5.6146716572       -0.2058451854
 H          8.1960252744       -5.6811498964       -0.3593075501
 H          6.0210512479       -4.5267782591       -0.4522483305
 H          5.9022639906       -2.0926014367       -0.2930371698
 H          5.4792064715        1.2824143293       -1.9155478512
 H          3.0114420804        1.1439731655       -1.9396980636
 H          2.4370883956       -2.2514603262       -0.1915212529
 H          1.1760698786       -4.3482722896       -0.3184170424
 H         -1.2905518701       -4.3208086324       -0.3122058157
 H         -2.5035405863       -2.1956630126       -0.1831679541
 H         -3.0004049682        1.1526340044       -1.9756066252
 H         -5.4688411701        1.2850224349       -1.9851113536
 H         -8.5888572153        3.8990499531       -1.3354437874
 H         -7.5324762530        6.1314064625       -1.4934750001
 H         -5.3976961496        6.5647883406       -0.3321107910
 H         -4.3568633820        4.7850240285        1.0239206959
 H         -5.4139413041        2.5879242874        1.2019117132
 H        -11.7142655347        1.3827678037        0.0576557667
 H        -13.8504742169        0.1226764543        0.1806411783
 H        -13.8209124947       -2.3377939320        0.2530922086
 H        -12.6014108606       -4.4454115508        0.2616756764
 H        -10.4734480007       -5.6737987609        0.1614786751
 H         -8.0593728143       -5.6927331074       -0.0125435095
 H         -5.9148333761       -4.4950830182       -0.2142081304
 H         -5.8551178572       -2.0548708184       -0.2254034079
 H         -5.5749482001       -0.4593242544        1.9115890169
 H         -3.1062640666       -0.5900276206        1.9191417130
 H         -2.4504609381        2.7258387869        0.1764796161
 H         -1.1915374880        4.8201506322        0.3256486206
 H          1.2760532047        4.7923394709        0.3457232386
 H          2.4906155727        2.6737615839        0.2096615870
 H          3.0756912230       -0.7130966570        1.9031043953
 H          5.5441974731       -0.5828330374        1.9255786284
 H          5.3153004701        2.4410149895        1.3527675844
 H          4.2227651393        4.6251429679        1.3008491923
