  41
  -69.9380808200000       0.125453531239058      !
 C          5.3352401518       -2.8181296517       -0.0974607058
 O          3.9555238990       -2.5181349101       -0.0857652039
 C          3.5747981714       -1.2310484058       -0.0531092995
 C          4.4104548183       -0.1568977830       -0.0289672552
 C          3.9181160165        1.1927042322        0.0046336058
 O          4.6110418027        2.1887414605        0.0234315075
 O          2.5588859566        1.3681267859        0.0174307256
 C          1.7094444512        0.3221208946       -0.0020098673
 C          2.1480747515       -1.0086942717       -0.0416186718
 C          1.2171022856       -2.0635020482       -0.0788585385
 C         -0.1347503749       -1.8331731541       -0.0611412530
 C         -0.5746487695       -0.5096983838        0.0026257726
 C          0.3351217609        0.5714136362        0.0155456165
 C         -0.4480418188        1.7722488572        0.0386929355
 C         -0.1258575985        3.1235874603        0.0720790838
 C         -1.1568341662        4.0399949538        0.1104000961
 C         -2.4882186520        3.6265595585        0.1296085540
 C         -2.8305940775        2.2884663925        0.0957243027
 C         -1.8000660049        1.3614975385        0.0342807040
 N         -1.8558213905       -0.0201247644        0.0126147041
 C         -3.0318170736       -0.7905529178       -0.0006533797
 C         -3.2130588374       -1.8051141554        0.9336175767
 C         -4.3711878964       -2.5607437519        0.9133219002
 C         -5.3552841313       -2.3050515464       -0.0270813434
 C         -5.1772671661       -1.2913798419       -0.9540160089
 C         -4.0185367343       -0.5365903332       -0.9477295843
 H          5.3984118073       -3.9041229517       -0.1284030923
 H          5.8287548052       -2.4470249234        0.8050812677
 H          5.8247031652       -2.3965214649       -0.9797407376
 H          5.4830708306       -0.2482997863       -0.0343602446
 H          1.6005743203       -3.0697968656       -0.1268320465
 H         -0.8378676633       -2.6498857257       -0.1069970549
 H          0.9068967746        3.4333681266        0.0719982343
 H         -0.9333401979        5.0958183428        0.1348425673
 H         -3.2705212392        4.3695263224        0.1751268943
 H         -3.8637109589        1.9769446744        0.1266084097
 H         -2.4515051106       -1.9862848810        1.6775296325
 H         -4.5077822493       -3.3476641960        1.6398522056
 H         -6.2595777119       -2.8941592087       -0.0372562099
 H         -5.9411087915       -1.0904306148       -1.6901387477
 H         -3.8655670504        0.2424626266       -1.6796036910
  41
  -69.9380804900000       0.125409729976120      !
 C          5.3335376530       -2.8186943222       -0.0863812466
 O          3.9543102716       -2.5186375839       -0.0871395170
 C          3.5735059727       -1.2315169513       -0.0553926477
 C          4.4095077165       -0.1577320652       -0.0341231194
 C          3.9170927899        1.1918258846        0.0016931166
 O          4.6104080088        2.1876836871        0.0151951560
 O          2.5584345625        1.3679387126        0.0186775101
 C          1.7085869503        0.3221237611       -0.0009827633
 C          2.1469909198       -1.0086106707       -0.0433042147
 C          1.2153676937       -2.0627674824       -0.0817209847
 C         -0.1364079365       -1.8318979731       -0.0623564641
 C         -0.5758305121       -0.5084887343        0.0038101908
 C          0.3345126910        0.5719910080        0.0187859507
 C         -0.4480326276        1.7731697092        0.0427057181
 C         -0.1243185281        3.1240858826        0.0785765834
 C         -1.1544598915        4.0416164466        0.1145184211
 C         -2.4862242456        3.6293386140        0.1288056698
 C         -2.8299967230        2.2914913428        0.0938077631
 C         -1.8003302641        1.3633085022        0.0355820734
 N         -1.8567360915       -0.0182660168        0.0128319943
 C         -3.0321776388       -0.7896685254       -0.0003292122
 C         -3.2132624565       -1.8027923011        0.9355550047
 C         -4.3694446740       -2.5612287704        0.9140044365
 C         -5.3516027233       -2.3100175357       -0.0294210689
 C         -5.1738933338       -1.2975263239       -0.9576171020
 C         -4.0172832011       -0.5396365622       -0.9497614875
 H          5.8189931807       -2.4419220138        0.8173158675
 H          5.8295007409       -2.4026621907       -0.9666201987
 H          5.3976832909       -3.9046115957       -0.1102328575
 H          5.4821667785       -0.2489587414       -0.0436572192
 H          1.5983325414       -3.0690617817       -0.1314379339
 H         -0.8398247112       -2.6482309854       -0.1088376019
 H          0.9088814892        3.4322992825        0.0811241928
 H         -0.9299871388        5.0973087295        0.1392589814
 H         -3.2680530497        4.3731996391        0.1701983369
 H         -3.8637207970        1.9815612318        0.1204886576
 H         -2.4533559266       -1.9803496176        1.6818321989
 H         -4.5068697844       -3.3458475173        1.6428499159
 H         -6.2549974424       -2.9008420158       -0.0393463652
 H         -5.9368127041       -1.0994023999       -1.6955302187
 H         -3.8647810378        0.2391365106       -1.6820806194
  41
  -69.9380798700000       0.125327478043691      !
 C          5.3317142053       -2.8106842523       -0.2836737404
 O          3.9523820989       -2.5107107604       -0.2490625666
 C          3.5728833477       -1.2260196814       -0.1575438729
 C          4.4093563912       -0.1538126808       -0.0994277520
 C          3.9179969697        1.1930119838        0.0004235346
 O          4.6119158617        2.1872244076        0.0532501528
 O          2.5593937793        1.3675537395        0.0378803978
 C          1.7089622344        0.3234863487       -0.0190331867
 C          2.1465294273       -1.0045258448       -0.1174761849
 C          1.2154288256       -2.0590740890       -0.1583233501
 C         -0.1359304696       -1.8294490465       -0.1175660702
 C         -0.5753142958       -0.5065876302       -0.0387034004
 C          0.3350991192        0.5720502542        0.0264559891
 C         -0.4468741197        1.7678114186        0.1468424380
 C         -0.1242038551        3.1163931828        0.2375742543
 C         -1.1545369722        4.0298999888        0.3271329627
 C         -2.4863234085        3.6177500520        0.3134500096
 C         -2.8292378474        2.2824128902        0.2237916754
 C         -1.7986526773        1.3561216484        0.1549323298
 N         -1.8554865701       -0.0209387313        0.0408016261
 C         -3.0314318173       -0.7905073474        0.0006151433
 C         -3.9958293823       -0.6404880625        0.9917744631
 C         -5.1544706351       -1.3941071497        0.9444301639
 C         -5.3542772867       -2.3041158580       -0.0804990155
 C         -4.3919255484       -2.4570346673       -1.0649855798
 C         -3.2344898515       -1.7009617142       -1.0315452459
 H          5.8149049817       -2.3561932692       -1.1529767037
 H          5.3938597411       -3.8947317327       -0.3565819704
 H          5.8328574686       -2.4747085533        0.6283922462
 H          5.4817323173       -0.2450443749       -0.1236410955
 H          1.5985112194       -3.0647163196       -0.2195348751
 H         -0.8393927899       -2.6469581474       -0.1331231532
 H          0.9083168846        3.4269078386        0.2329816151
 H         -0.9304293091        5.0832960273        0.4009788395
 H         -3.2686092135        4.3597741163        0.3716840404
 H         -3.8632175146        1.9734832206        0.1980856969
 H         -3.8257167403        0.0558171381        1.7993142601
 H         -5.9008195720       -1.2743877484        1.7154634055
 H         -6.2584289184       -2.8926666005       -0.1122759702
 H         -4.5456806496       -3.1623576124       -1.8679786976
 H         -2.4903815739       -1.8001130666       -1.8079530338
  41
  -69.9380793200000       0.125254557776451      !
 C          5.3387421903       -2.8155180982        0.0932596012
 O          3.9588805355       -2.5172126441        0.0744151610
 C          3.5768634168       -1.2303584870        0.0447163450
 C          4.4115094823       -0.1551850850        0.0302017396
 C          3.9177963672        1.1940628603       -0.0026361473
 O          4.6101538928        2.1906322233       -0.0161997071
 O          2.5585939964        1.3680804045       -0.0211810887
 C          1.7100935153        0.3211230497       -0.0060404510
 C          2.1498590852       -1.0093934768        0.0291894144
 C          1.2196133226       -2.0649394529        0.0621677168
 C         -0.1325036862       -1.8354546812        0.0474180645
 C         -0.5736258339       -0.5120842421       -0.0091735878
 C          0.3356142736        0.5695331380       -0.0214029102
 C         -0.4480648759        1.7701369087       -0.0352308439
 C         -0.1263286722        3.1216889956       -0.0647629236
 C         -1.1576619682        4.0381192356       -0.0906927046
 C         -2.4890183625        3.6244437012       -0.1012882534
 C         -2.8308773782        2.2860647541       -0.0730124063
 C         -1.7998565555        1.3588965216       -0.0245688818
 N         -1.8550151962       -0.0229757837       -0.0091147046
 C         -3.0319284323       -0.7919372668        0.0015927133
 C         -3.2168066648       -1.8011998237       -0.9377582934
 C         -4.3775926162       -2.5528336155       -0.9210492541
 C         -5.3609099192       -2.2983738317        0.0205710702
 C         -5.1789032815       -1.2905861386        0.9531927598
 C         -4.0172878553       -0.5402493141        0.9508461452
 H          5.8199320943       -2.4067292503        0.9862520593
 H          5.8397936488       -2.4298173956       -0.7989467966
 H          5.4033464041       -3.9018327041        0.1079982388
 H          5.4841994664       -0.2451014308        0.0430865353
 H          1.6037745753       -3.0711866458        0.1045124809
 H         -0.8348622865       -2.6529638460        0.0905955259
 H          0.9063306563        3.4316530639       -0.0704753586
 H         -0.9345306915        5.0941455038       -0.1111294416
 H         -3.2718958599        4.3673445353       -0.1358969324
 H         -3.8642055021        1.9748662849       -0.0979322795
 H         -2.4566326690       -1.9804701239       -1.6835578302
 H         -4.5181212752       -3.3341028560       -1.6528035140
 H         -6.2682365614       -2.8831089024        0.0266065624
 H         -5.9415303921       -1.0912539110        1.6911660059
 H         -3.8604145233        0.2327565364        1.6882906387
  41
  -69.9380768900000       0.124932890268042      !
 C          5.3387276166       -2.8147900827       -0.1002890229
 O          3.9587659810       -2.5171255625       -0.0778650329
 C          3.5763817177       -1.2302779729       -0.0513253005
 C          4.4109215121       -0.1550551392       -0.0397286588
 C          3.9172828678        1.1942714674       -0.0089420583
 O          4.6095849376        2.1910102824       -0.0004582502
 O          2.5582526658        1.3682004220        0.0136071287
 C          1.7098016171        0.3211178143        0.0019137759
 C          2.1494371652       -1.0094454327       -0.0343788769
 C          1.2189696430       -2.0649112409       -0.0658308189
 C         -0.1330999240       -1.8353001526       -0.0477752517
 C         -0.5739071645       -0.5119591742        0.0118124318
 C          0.3354750083        0.5695836317        0.0225278008
 C         -0.4478831582        1.7702382464        0.0442461819
 C         -0.1260263374        3.1216483162        0.0776524857
 C         -1.1572885357        4.0377802712        0.1153747062
 C         -2.4885662023        3.6240001848        0.1334212020
 C         -2.8305656484        2.2857920142        0.0996387067
 C         -1.7997216964        1.3590787126        0.0396217749
 N         -1.8551539000       -0.0225785763        0.0196971791
 C         -3.0321534388       -0.7914948200        0.0001296230
 C         -3.2218924199       -1.8047240319        0.9340267593
 C         -4.3820680155       -2.5571250999        0.9068977412
 C         -5.3594108215       -2.2997331221       -0.0400961372
 C         -5.1726107959       -1.2877101418       -0.9671068964
 C         -4.0119639518       -0.5360483807       -0.9538029646
 H          5.8172796399       -2.4051808674       -0.9937749119
 H          5.4038594095       -3.9007688662       -0.1152020331
 H          5.8418262940       -2.4297186661        0.7914197795
 H          5.4835647110       -0.2451049259       -0.0532460937
 H          1.6029233334       -3.0712337833       -0.1085968427
 H         -0.8357110179       -2.6526728667       -0.0894481391
 H          0.9066365411        3.4316767801        0.0779143307
 H         -0.9340448766        5.0936697282        0.1399956064
 H         -3.2711324098        4.3667392960        0.1781910247
 H         -3.8636196700        1.9739595362        0.1296959570
 H         -2.4659460977       -1.9867614235        1.6834533129
 H         -4.5262217990       -3.3421641022        1.6340185787
 H         -6.2653814055       -2.8861527303       -0.0552285886
 H         -5.9306020257       -1.0861218812       -1.7091036757
 H         -3.8515568349        0.2413773310       -1.6858489183
  41
  -69.9380761800000       0.124839061147625      !
 C          5.3314290729       -2.8064119551       -0.3396124729
 O          3.9527598985       -2.5084085347       -0.2738059073
 C          3.5737300907       -1.2253124374       -0.1603259670
 C          4.4100515201       -0.1535776346       -0.0939005483
 C          3.9185309503        1.1918964408        0.0223450061
 O          4.6123448458        2.1853959591        0.0876276055
 O          2.5598329269        1.3661806006        0.0593904773
 C          1.7095598545        0.3223956494       -0.0045026802
 C          2.1475611934       -1.0050557118       -0.1095042535
 C          1.2168574743       -2.0598532824       -0.1505469069
 C         -0.1347103957       -1.8309489713       -0.1081401568
 C         -0.5747511146       -0.5082850215       -0.0314653064
 C          0.3355352824        0.5703938870        0.0372607906
 C         -0.4468519976        1.7667349754        0.1494213209
 C         -0.1243379999        3.1156527439        0.2359085616
 C         -1.1550716431        4.0301762595        0.3095607439
 C         -2.4868998570        3.6185230011        0.2843703294
 C         -2.8295600783        2.2827422796        0.2000960279
 C         -1.7987460894        1.3555007740        0.1479636351
 N         -1.8552545937       -0.0219232210        0.0388215727
 C         -3.0315463424       -0.7910811155        0.0019146303
 C         -3.9990385568       -0.6297942927        0.9883446661
 C         -5.1586200675       -1.3820216735        0.9447258809
 C         -5.3562679391       -2.3020735127       -0.0715513230
 C         -4.3910734989       -2.4661002502       -1.0512004429
 C         -3.2326179929       -1.7113441098       -1.0217020820
 H          5.8471842216       -2.4974074403        0.5736178652
 H          5.7998944301       -2.3258312055       -1.2025813556
 H          5.3920767923       -3.8875788020       -0.4457197096
 H          5.4823463482       -0.2438657924       -0.1237378673
 H          1.6001166020       -3.0653253815       -0.2140290456
 H         -0.8369885405       -2.6495288541       -0.1233473310
 H          0.9083730167        3.4255519119        0.2396417047
 H         -0.9312712752        5.0839349127        0.3788884702
 H         -3.2694649455        4.3613063286        0.3282494456
 H         -3.8634634928        1.9743133150        0.1650232059
 H         -3.8304286874        0.0747292480        1.7890885743
 H         -5.9074206677       -1.2536873344        1.7119524227
 H         -6.2612769924       -2.8894868599       -0.1004192219
 H         -4.5432347675       -3.1794010684       -1.8473126159
 H         -2.4863205300       -1.8193517542       -1.7947034549
  41
  -69.9380730000000       0.124419676291138      !
 C          5.3345543499       -2.8192208714       -0.0626019901
 O          3.9551805504       -2.5182359455       -0.0763848711
 C          3.5748233083       -1.2307750568       -0.0530343366
 C          4.4106894520       -0.1567922560       -0.0264728395
 C          3.9181677821        1.1930364450        0.0017915117
 O          4.6115198440        2.1889221997        0.0201688452
 O          2.5591675304        1.3685736007        0.0106319129
 C          1.7094941342        0.3226688544       -0.0127487502
 C          2.1481471939       -1.0081276829       -0.0532735507
 C          1.2173133597       -2.0628252304       -0.0984537352
 C         -0.1345425860       -1.8323649486       -0.0839193726
 C         -0.5743969229       -0.5092356108       -0.0134229264
 C          0.3352157041        0.5720370156        0.0043578689
 C         -0.4482405615        1.7724779785        0.0352447706
 C         -0.1263501429        3.1235969811        0.0775126252
 C         -1.1574894737        4.0394670447        0.1247744677
 C         -2.4887375637        3.6256251681        0.1441684939
 C         -2.8308551532        2.2877093135        0.1012654049
 C         -1.8002276654        1.3614054634        0.0309981484
 N         -1.8556680242       -0.0201145636        0.0006072919
 C         -3.0314368046       -0.7909628467       -0.0053161255
 C         -4.0266108839       -0.5344425830       -0.9427198803
 C         -5.1855570768       -1.2889744872       -0.9401779798
 C         -5.3553567991       -2.3049018986       -0.0142107192
 C         -4.3625649943       -2.5635165626        0.9161958955
 C         -3.2042544220       -1.8080988333        0.9278367487
 H          5.8138772537       -2.4366262115        0.8429169559
 H          5.8383341641       -2.4104441987       -0.9429054330
 H          5.3971993238       -3.9054340531       -0.0775501839
 H          5.4832848879       -0.2482671142       -0.0252833293
 H          1.6008621271       -3.0690422523       -0.1474735594
 H         -0.8377639218       -2.6487255446       -0.1349499971
 H          0.9063248400        3.4336696790        0.0774356946
 H         -0.9341392694        5.0950737972        0.1572229147
 H         -3.2711806979        4.3679707391        0.1974583764
 H         -3.8638897218        1.9757731598        0.1324588368
 H         -3.8799967009        0.2462002943       -1.6742599091
 H         -5.9560037371       -1.0861021739       -1.6687857951
 H         -6.2598261648       -2.8938386868       -0.0175108551
 H         -4.4930673400       -3.3516989294        1.6425484334
 H         -2.4364985926       -1.9903152564        1.6651350654
  41
  -69.9380725700000       0.124363075257875      !
 C          5.3304471083       -2.8057561040       -0.3511125688
 O          3.9524025297       -2.5083518992       -0.2753080206
 C          3.5735116168       -1.2255923935       -0.1596983714
 C          4.4099792795       -0.1537898418       -0.0955703399
 C          3.9187859743        1.1915624397        0.0236480263
 O          4.6127593833        2.1850673642        0.0888759517
 O          2.5602993084        1.3657865915        0.0634933272
 C          1.7097554786        0.3222028895       -0.0005346431
 C          2.1473429486       -1.0053356264       -0.1055892305
 C          1.2164536513       -2.0601203618       -0.1469772842
 C         -0.1349440626       -1.8309926777       -0.1039629999
 C         -0.5745218173       -0.5081293533       -0.0267362361
 C          0.3357379373        0.5705816940        0.0406141477
 C         -0.4468209658        1.7671214332        0.1502560240
 C         -0.1249838416        3.1164750307        0.2309188455
 C         -1.1561665070        4.0309460883        0.3013114925
 C         -2.4877586520        3.6187097397        0.2800207991
 C         -2.8299022699        2.2823428117        0.2015091895
 C         -1.7987332141        1.3556270042        0.1504839827
 N         -1.8549070479       -0.0219774094        0.0440039444
 C         -3.0312036100       -0.7911643531        0.0042191792
 C         -3.9968536517       -0.6368650792        0.9934615954
 C         -5.1561754287       -1.3894704225        0.9470935798
 C         -5.3555047084       -2.3023044817       -0.0752888435
 C         -4.3922813539       -2.4588381554       -1.0581432588
 C         -3.2337904344       -1.7043267113       -1.0254394361
 H          5.3911262279       -3.8877343056       -0.4512449722
 H          5.8546073256       -2.4909966436        0.5554701572
 H          5.7907465511       -2.3302491950       -1.2216005305
 H          5.4821548652       -0.2442261524       -0.1291532090
 H          1.5998414979       -3.0655146556       -0.2110909195
 H         -0.8377932487       -2.6491271816       -0.1193997392
 H          0.9074350177        3.4273473012        0.2318686394
 H         -0.9323927100        5.0850935731        0.3647135557
 H         -3.2707142997        4.3611879516        0.3222398199
 H         -3.8636903947        1.9731681691        0.1695996120
 H         -3.8268332171        0.0623385279        1.7985668868
 H         -5.9029513930       -1.2672310255        1.7173055144
 H         -6.2599178357       -2.8905267935       -0.1064433028
 H         -4.5464637471       -3.1658667868       -1.8594997364
 H         -2.4887787262       -1.8066366770       -1.8005423980
