  41
        -69.93808082
 C          5.3352401518       -2.8181296517       -0.0974607058
 O          3.9555238990       -2.5181349101       -0.0857652039
 C          3.5747981714       -1.2310484058       -0.0531092995
 C          4.4104548183       -0.1568977830       -0.0289672552
 C          3.9181160165        1.1927042322        0.0046336058
 O          4.6110418027        2.1887414605        0.0234315075
 O          2.5588859566        1.3681267859        0.0174307256
 C          1.7094444512        0.3221208946       -0.0020098673
 C          2.1480747515       -1.0086942717       -0.0416186718
 C          1.2171022856       -2.0635020482       -0.0788585385
 C         -0.1347503749       -1.8331731541       -0.0611412530
 C         -0.5746487695       -0.5096983838        0.0026257726
 C          0.3351217609        0.5714136362        0.0155456165
 C         -0.4480418188        1.7722488572        0.0386929355
 C         -0.1258575985        3.1235874603        0.0720790838
 C         -1.1568341662        4.0399949538        0.1104000961
 C         -2.4882186520        3.6265595585        0.1296085540
 C         -2.8305940775        2.2884663925        0.0957243027
 C         -1.8000660049        1.3614975385        0.0342807040
 N         -1.8558213905       -0.0201247644        0.0126147041
 C         -3.0318170736       -0.7905529178       -0.0006533797
 C         -3.2130588374       -1.8051141554        0.9336175767
 C         -4.3711878964       -2.5607437519        0.9133219002
 C         -5.3552841313       -2.3050515464       -0.0270813434
 C         -5.1772671661       -1.2913798419       -0.9540160089
 C         -4.0185367343       -0.5365903332       -0.9477295843
 H          5.3984118073       -3.9041229517       -0.1284030923
 H          5.8287548052       -2.4470249234        0.8050812677
 H          5.8247031652       -2.3965214649       -0.9797407376
 H          5.4830708306       -0.2482997863       -0.0343602446
 H          1.6005743203       -3.0697968656       -0.1268320465
 H         -0.8378676633       -2.6498857257       -0.1069970549
 H          0.9068967746        3.4333681266        0.0719982343
 H         -0.9333401979        5.0958183428        0.1348425673
 H         -3.2705212392        4.3695263224        0.1751268943
 H         -3.8637109589        1.9769446744        0.1266084097
 H         -2.4515051106       -1.9862848810        1.6775296325
 H         -4.5077822493       -3.3476641960        1.6398522056
 H         -6.2595777119       -2.8941592087       -0.0372562099
 H         -5.9411087915       -1.0904306148       -1.6901387477
 H         -3.8655670504        0.2424626266       -1.6796036910
