  75
       -117.16990229
 N          0.0022695508        1.2570937162       -0.7862632219
 C          0.0001020547        0.1476492959       -0.4821593654
 C         -0.0014516720       -1.2322228204       -0.2175674318
 C          1.2036887526       -1.9691820247       -0.1597076763
 C          2.5164103452       -1.3440910483       -0.0914230815
 C          2.7253426224       -0.1162194645        0.5392410228
 C          3.9825332521        0.4389212239        0.5959823511
 C          5.0783164749       -0.2089626317        0.0150358551
 N          6.3405738486        0.3607770678        0.0579115091
 C          7.4886450673       -0.4458333189        0.1000332036
 C          7.5136353501       -1.6038199212        0.8756010213
 C          8.6506969808       -2.3876949966        0.9159645984
 C          9.7775287032       -2.0263617072        0.1956768539
 C          9.7592906472       -0.8724207161       -0.5705898161
 C          8.6241855096       -0.0864519308       -0.6238288944
 C          6.4939436848        1.7562226622        0.0683658790
 C          5.6799100350        2.5646559044       -0.7234634565
 C          5.8422436605        3.9366393019       -0.7107672094
 C          6.8192847259        4.5201952970        0.0793015385
 C          7.6347157185        3.7198037865        0.8623683461
 C          7.4745766378        2.3473853440        0.8629050300
 C          4.8713460691       -1.4489771992       -0.6016452276
 C          3.6167407043       -2.0080877319       -0.6412973621
 N          1.1763978498       -3.3022837931       -0.1796221226
 C          0.0000148619       -3.8904727313       -0.2217121238
 N         -1.1762339923       -3.3033656216       -0.1677094904
 C         -1.2055854037       -1.9700182440       -0.1496745512
 C         -2.5190405582       -1.3476154326       -0.0749793226
 C         -2.7255693428       -0.1096779500        0.5367374803
 C         -3.9827958994        0.4453470635        0.5912850676
 C         -5.0816608063       -0.2128443306        0.0277703784
 N         -6.3425279449        0.3606580521        0.0629613304
 C         -6.4916043434        1.7562741222        0.0372675971
 C         -7.4737021466        2.3705890313        0.8122743435
 C         -7.6281552604        3.7432339169        0.7774496411
 C         -6.8053508630        4.5212653393       -0.0203773628
 C         -5.8273087304        3.9146885098       -0.7915969190
 C         -5.6711410615        2.5421405579       -0.7706361125
 C         -7.4921510512       -0.4426461901        0.1232139709
 C         -8.6271301934       -0.0992412118       -0.6091674205
 C         -9.7630210160       -0.8826621528       -0.5376926501
 C         -9.7826777998       -2.0181470075        0.2555836908
 C         -8.6563416372       -2.3637438039        0.9843628229
 C         -7.5184825931       -1.5822124507        0.9256484090
 C         -4.8782476577       -1.4653355590       -0.5642605265
 C         -3.6231629559       -2.0234239935       -0.6028357939
 H          1.9053052243        0.3914899319        1.0224959853
 H          4.1311570851        1.3789966765        1.1048088514
 H          6.6395074863       -1.8793128230        1.4472838585
 H          8.6587187868       -3.2815548872        1.5217760725
 H         10.6650206231       -2.6392941276        0.2329764629
 H         10.6322078485       -0.5851313007       -1.1375843424
 H          8.6071533572        0.8095599244       -1.2269194788
 H          4.9245053685        2.1103650353       -1.3474744223
 H          5.2055243184        4.5521538785       -1.3285577003
 H          6.9442876963        5.5921231481        0.0844067381
 H          8.3954689671        4.1665581944        1.4850272740
 H          8.1051262076        1.7239854161        1.4799050681
 H          5.7055508656       -1.9603117082       -1.0577826121
 H          3.4567719427       -2.9613493214       -1.1200622249
 H          0.0001484799       -4.9716551231       -0.2818259952
 H         -1.9033286779        0.4076134855        1.0055913858
 H         -4.1289404703        1.3945088198        1.0837436897
 H         -8.1102327234        1.7650124100        1.4408336802
 H         -8.3904172366        4.2080158538        1.3848860875
 H         -6.9254437300        5.5935520358       -0.0414247511
 H         -5.1853828231        4.5122233814       -1.4215464915
 H         -4.9158815702        2.0700293183       -1.3814211672
 H         -8.6094413647        0.7825117406       -1.2329416783
 H        -10.6357832044       -0.6074476354       -1.1108987673
 H        -10.6708754640       -2.6288829904        0.3074051429
 H         -8.6653032722       -3.2433031596        1.6108134159
 H         -6.6446180293       -1.8451472794        1.5036183041
 H         -5.7151318585       -1.9867225760       -1.0038497293
 H         -3.4653048015       -2.9851282222       -1.0650923506
