75
 energy: -117.221127521826 gnorm: 0.000043675680 xtb: 6.7.1 (edcfbbe)
N            0.00483888560435        1.22367649625072       -0.89726532154971
C            0.00187807475508        0.12578595979056       -0.55097612648224
C           -0.00049793050032       -1.24452781125738       -0.24860364254520
C            1.20580480062706       -1.97964599642955       -0.17211678242441
C            2.51616552775450       -1.35581120926999       -0.09701966775110
C            2.71862819189780       -0.11435967094186        0.51256360151133
C            3.97386426443682        0.44308611546945        0.57516623941596
C            5.08090729493643       -0.21495577739770        0.02281668669967
N            6.33830142761007        0.35640644529934        0.07095963951508
C            7.49418601342557       -0.44484215992562        0.11242749003729
C            7.53848774103953       -1.58359530138929        0.91475267645652
C            8.68275996325097       -2.35783949354202        0.95713900518396
C            9.79648226747157       -2.00407148173835        0.21247893787707
C            9.75819974764632       -0.86866889110299       -0.58075239117201
C            8.61581188880285       -0.09242675539171       -0.63559354394009
C            6.49370804362652        1.75477176323823        0.07570277393860
C            5.70835611683052        2.55855385074317       -0.74880738970233
C            5.87775048371248        3.93034295647903       -0.74442786763470
C            6.83321132063866        4.51630808289323        0.07036323708731
C            7.62055318313931        3.71952271579053        0.88582618993823
C            7.45315063084116        2.34749704579522        0.89427835697987
C            4.88103645261342       -1.47004377510813       -0.56913778386361
C            3.62763933181011       -2.02979016205253       -0.61587506729387
N            1.17538986430904       -3.31563169504440       -0.18011260117442
C           -0.00231808972926       -3.90041111917067       -0.22649983889225
N           -1.17900330617093       -3.31384917089090       -0.17894073797842
C           -1.20790733650684       -1.97769861350992       -0.17176774381908
C           -2.51785244060767       -1.35291350537911       -0.09744375054410
C           -2.71900350911343       -0.10690352274017        0.50329061938815
C           -3.97402838677582        0.45128639610888        0.56384782079200
C           -5.08232707797444       -0.21129806843863        0.01966660940971
N           -6.33971800031365        0.36078577911500        0.06626407310500
C           -6.49398575746803        1.75907394477499        0.05006506640718
C           -7.45048281840132        2.36574007549939        0.86186878641484
C           -7.61606177997373        3.73771282846292        0.83254115876723
C           -6.82970123056409        4.52075831220141        0.00291742427233
C           -5.87709059160634        3.92094658990201       -0.80510350013399
C           -5.70953961674364        2.54905524889381       -0.78859269956925
C           -7.49466312052164       -0.44040783536280        0.12502998055375
C           -8.62218363975558       -0.09782440468857       -0.61871775870445
C           -9.76325908732716       -0.87458751695231       -0.54656388406820
C           -9.79444112504806       -2.00101992912085        0.25966773103147
C           -8.67483969570029       -2.34512133789604        1.00002521185494
C           -7.53186617804270       -1.57013835334978        0.94046804511168
C           -4.88405589324382       -1.47111328718587       -0.56255623547092
C           -3.63061613465708       -2.03078387838822       -0.60865845171123
H            1.89172260648975        0.40154945525536        0.97785182721961
H            4.11230682668257        1.39317900164265        1.06869805369941
H            6.67458732503128       -1.85297709544958        1.50478150220645
H            8.70658587328712       -3.23784788170038        1.58298987773217
H           10.68956403049938       -2.60937531184224        0.25104908279036
H           10.62117862371350       -0.58789103829658       -1.16641465415540
H            8.58392854132511        0.78998372913129       -1.25771420937356
H            4.96966932940695        2.10239599734346       -1.39189329267023
H            5.26377657027331        4.54324338675292       -1.38784965419000
H            6.96434332175010        5.58786004432451        0.06818173916214
H            8.36562262515244        4.16893474704150        1.52570453181097
H            8.06266959145640        1.72656712948247        1.53433381546565
H            5.71994264213155       -1.99296737570744       -1.00281037050269
H            3.47541270964138       -2.99223056895444       -1.07944501250517
H           -0.00318095217062       -4.98267194052230       -0.28083837715634
H           -1.89125474227859        0.41255242768080        0.96299405785454
H           -4.11145978438765        1.40554233250750        1.04959749010216
H           -8.05919107577702        1.75569627476048        1.51307211190258
H           -8.35890228291924        4.19799440126116        1.46728616999667
H           -6.95937995215405        5.59233547174329       -0.01560730103129
H           -5.26389385705158        4.52293400783151       -1.45948352205826
H           -4.97309635665201        2.08199103622594       -1.42641192205200
H           -8.59595285421639        0.77731347877146       -1.25126629736281
H          -10.63081648638751       -0.60136472924989       -1.12901850738785
H          -10.68650572210223       -2.60681631608273        0.31164561492505
H           -8.69297772245446       -3.21805479427394        1.63590134611418
H           -6.66340735954444       -1.83183272542484        1.52726213983089
H           -5.72420930561087       -1.99753513583456       -0.98954599904649
H           -3.47927344177969       -2.99655221135603       -1.06550688627826
