62
 energy: -87.700500747214 gnorm: 0.000177240651 xtb: 6.7.1 (edcfbbe)
C            1.85708623302395       -3.34729692245823       -3.41664477940554
C            1.00092169512178       -2.63351339814609       -2.41551947356542
C            1.60696741056669       -1.81006231008631       -1.45723771342548
C            0.81110371930845       -1.13415933956359       -0.55191270313127
P            1.24737674082520        0.10089570225167        0.69649930462819
C            2.94367389502315       -0.37035391134568        1.19385593577032
C            3.16585203718590       -1.68542426235690        1.61527932243401
C            4.38993367450711       -2.04833799215166        2.13289320199849
C            5.39258206583435       -1.09685058514418        2.28312168080592
C            5.15913820803329        0.22028448343814        1.91219058741156
C            3.93684331070724        0.59238836721568        1.39087940146974
C            1.38922026096380        1.70743727286233       -0.10399500938904
C            1.50318646228344        1.81303115175847       -1.49664606051668
C            1.46152613513232        3.05277294009299       -2.09484412384715
C            1.29670615879206        4.20163663364858       -1.33097233876135
C            1.17646662669779        4.10117393474940        0.05100808197000
C            1.21010272369621        2.86872387812865        0.66117776431406
C           -0.57389315906845       -1.28523834119789       -0.57203402631262
P           -1.30058580233475       -0.17733114754947        0.66111160874016
C           -2.87041426586043       -1.00285136702546        1.11010157522495
C           -4.05573741990583       -0.27894540021843        1.26206647117068
C           -5.18431618719626       -0.90548945756077        1.74992362237581
C           -5.13737208014009       -2.23914523895802        2.13218426379358
C           -3.94693761892713       -2.94979672557696        2.02679015405825
C           -2.81481107592684       -2.33195590466763        1.54259755875379
C           -1.75828397216694        1.36048665684814       -0.15546312895804
C           -1.87556819525573        2.52881195578358        0.61077071209207
C           -2.09439574984713        3.74028313017345       -0.00332706514510
C           -2.17840448665551        3.81728335078579       -1.38932869811899
C           -2.05086182840331        2.66402841818568       -2.15369056511608
C           -1.83776377096725        1.44382382102686       -1.55177397925919
C           -1.17986555520730       -2.11534413433538       -1.49456553732348
C           -0.38436944332601       -2.78592456050178       -2.43415640145048
C           -1.03865289894886       -3.66578524964879       -3.45513498648275
H            1.71957359241623       -4.42574683626861       -3.34072416023499
H            2.90779418557191       -3.12044311510724       -3.25523784350295
H            1.59024946272260       -3.05206866700340       -4.43136262984985
H            2.68337792071629       -1.71240498579452       -1.42249470447765
H            2.37534403526803       -2.41560725521145        1.49717186630058
H            4.57051200523151       -3.07211979063494        2.42793476339940
H            6.34796675847686       -1.38037399176603        2.69875639804754
H            5.93742021753493        0.95997248729669        2.03540818444481
H            3.75066529122305        1.61557685236076        1.09480786090207
H            1.62787636629701        0.91834511348701       -2.09096489950897
H            1.55606059865364        3.13132226366741       -3.16869832011128
H            1.26243967420056        5.16900324462876       -1.80841553290690
H            1.05167235413538        4.99445809454168        0.64610850777554
H            1.10985083243290        2.77933868894062        1.73480434771544
H           -4.08780361193075        0.75788745551063        0.95682680566046
H           -6.10886772780844       -0.35277489405942        1.83798869470898
H           -6.02120362714902       -2.72132904983638        2.52229456671129
H           -3.90955633848063       -3.98600706134320        2.33134684026829
H           -1.88049117787740       -2.87260940570038        1.45970709682984
H           -1.80121644584981        2.45947782125091        1.68798754377229
H           -2.19690187648485        4.63614566257870        0.59212438182300
H           -2.34269131717339        4.76977542326694       -1.86964394924505
H           -2.11704752506267        2.72410005416685       -3.23082454872802
H           -1.73496338948872        0.54678894493432       -2.14668136642280
H           -2.25245777550425       -2.25286979526422       -1.48903768039610
H           -0.67221032445053       -4.68886926858084       -3.37261427901105
H           -0.81629157082239       -3.31688346484970       -4.46354716129358
H           -2.11736268304804       -3.67308896013434       -3.32158594584187
