  62
        -87.70492641
 C          1.4346546983       -0.0589903483       -4.7794087563
 C          0.6915680973       -0.0400731195       -3.4787867583
 C          1.3879929657       -0.0281705756       -2.2868546454
 C          0.6984874927        0.0113183383       -1.0808481264
 P          1.2532423926       -0.1924330132        0.6125633158
 C          1.2852092201       -1.9735696866        0.9211114515
 C          0.1998367918       -2.5862417816        1.5531886736
 C          0.1101072915       -3.9614707795        1.6052997119
 C          1.0918777673       -4.7466037835        1.0171087161
 C          2.1645052283       -4.1425626535        0.3690968896
 C          2.2599697334       -2.7703860853        0.3069149988
 C          2.9764081796        0.3512913293        0.6674247552
 C          3.3187322174        1.5254115514       -0.0105631125
 C          4.5880477866        2.0499328748        0.1139329086
 C          5.5151000457        1.4417635030        0.9499290073
 C          5.1597717690        0.3099054705        1.6721606158
 C          3.8928306977       -0.2221328111        1.5529081775
 C         -0.7203656575       -0.0462239129       -1.0752405342
 P         -1.2592992860        0.1766823916        0.6214432375
 C         -2.9948907844       -0.3277711975        0.6907927666
 C         -3.8934179838        0.2810592284        1.5707332027
 C         -5.1732239544       -0.2165389641        1.7010542788
 C         -5.5597895570       -1.3485574066        0.9953987690
 C         -4.6513739582       -1.9916319801        0.1652093606
 C         -3.3692434936       -1.5017855989        0.0300221370
 C         -1.2569369920        1.9628915892        0.9074780430
 C         -0.1646171315        2.5628518089        1.5390807714
 C         -0.0448986770        3.9366809605        1.5680895919
 C         -1.0040113124        4.7325180427        0.9580339802
 C         -2.0854848414        4.1408319845        0.3133966240
 C         -2.2101431434        2.7700769939        0.2739897078
 C         -1.4179678779       -0.0223872255       -2.2766478107
 C         -0.7297655252       -0.0260821736       -3.4737586732
 C         -1.4816407546       -0.0231676041       -4.7693559711
 H          2.5073511333       -0.0949351294       -4.6067133614
 H          1.2092906060        0.8317250663       -5.3661431701
 H          1.1505795921       -0.9267577013       -5.3740253009
 H          2.4704869296       -0.0301370794       -2.2903722949
 H         -0.5557700685       -1.9687002598        2.0267052797
 H         -0.7257631985       -4.4275169151        2.1072792035
 H          1.0214224296       -5.8231624404        1.0573900137
 H          2.9248687362       -4.7541126701       -0.0957519437
 H          3.0854487512       -2.2978072415       -0.2085576676
 H          2.5810650006        2.0022340551       -0.6429359827
 H          4.8583643309        2.9427340247       -0.4317046256
 H          6.5055465302        1.8592821703        1.0532003396
 H          5.8760934814       -0.1511455196        2.3370452641
 H          3.6066955828       -1.0979053188        2.1199771387
 H         -3.5833345446        1.1571103223        2.1245986752
 H         -5.8751123153        0.2716838881        2.3619272830
 H         -6.5602512355       -1.7391121210        1.1074292827
 H         -4.9464365491       -2.8845591545       -0.3672228676
 H         -2.6461630759       -2.0059036633       -0.5979139782
 H          0.5726736360        1.9383651508        2.0318385976
 H          0.7978915408        4.3924701774        2.0679837206
 H         -0.9095144248        5.8077809239        0.9789471599
 H         -2.8291239790        4.7606192177       -0.1672607195
 H         -3.0415154348        2.3066893880       -0.2402948008
 H         -2.5004530389       -0.0191820679       -2.2733287428
 H         -1.2550426914       -0.9179658526       -5.3498172263
 H         -1.2060396527        0.8409789376       -5.3737647390
 H         -2.5536177166        0.0085493987       -4.5899929456
