62
 energy: -87.798618216559 gnorm: 0.000066848485 xtb: 6.7.1 (edcfbbe)
C            1.47998146014621       -2.79463975232688       -3.19767559756783
C            0.70229999238270       -2.19676035364669       -2.06544691972203
C            1.35538425533325       -1.45938218056084       -1.08832742659079
C            0.65156514756781       -0.90293918969410       -0.03169628634252
P            1.36165584019706        0.09552955113780        1.31715948773694
C            3.07750437381984       -0.55873222434612        1.28241845917604
C            3.21861490278630       -1.88747760851215        1.67931420353511
C            4.46497170978403       -2.48040633171831        1.71859924867590
C            5.58993155955949       -1.74612029404006        1.37654935050444
C            5.45849030026569       -0.42109953217947        0.99817871240254
C            4.20980080921685        0.17527555624319        0.95314092920151
C            1.60630538264262        1.70567306835598        0.48030201112671
C            1.29334142293535        1.95561467016111       -0.84876757743476
C            1.46659775937997        3.22441842045525       -1.37304337659959
C            1.95195462851931        4.24997837795257       -0.58062872420567
C            2.26313779885875        4.00783176037073        0.74775153353165
C            2.08318606651604        2.74479533496533        1.27635554602565
C           -0.72985597289438       -1.08225578631504        0.05590613339300
P           -1.45873257726745       -0.28311807813074        1.52955113777885
C           -3.20458483338063       -0.82725733940266        1.38027281320508
C           -4.28072877562689        0.04474058660665        1.26717252509031
C           -5.57450534693233       -0.44663880151202        1.24843973064692
C           -5.80847509800783       -1.80689374871366        1.35621017092468
C           -4.74187429300060       -2.68069230060266        1.49885252731466
C           -3.45027030208478       -2.19223941427948        1.52330029314151
C           -1.57994611878798        1.41717644473405        0.85262690330443
C           -1.22492163142552        2.47629572284377        1.67823848038896
C           -1.26797658083655        3.77525863720838        1.20487267145798
C           -1.66400808460713        4.02176283540168       -0.09802685301991
C           -2.02387219326363        2.96900491365024       -0.92438002494595
C           -1.98200908502302        1.67034618650727       -0.45417780099091
C           -1.38506230259794       -1.81463644079821       -0.92128232779935
C           -0.68413178717060       -2.37402495227085       -1.98094473764668
C           -1.41416752948184       -3.16460615048045       -3.02334846945019
H            1.36507119240286       -3.87817369368281       -3.21167132644600
H            2.53720712591438       -2.56003704087538       -3.10263709873414
H            1.12356875053391       -2.41242662505158       -4.15412205486269
H            2.42695521863536       -1.32068680822985       -1.14954535232756
H            2.33450375793277       -2.45118754917042        1.94911751735194
H            4.56344828429305       -3.51352657786457        2.01960863401611
H            6.56700138277728       -2.20577704919661        1.40828446278223
H            6.33435859388935        0.15423632736493        0.73349248219447
H            4.11835165370681        1.20908925312564        0.65219905185648
H            0.90936984097341        1.16253079498406       -1.47447099823842
H            1.21922616064338        3.41272791324227       -2.40802236450360
H            2.08409615197583        5.23848759688810       -0.99577829973398
H            2.63899234967773        4.80687387132889        1.37068544438189
H            2.31050381908967        2.54830921561246        2.31636064641099
H           -4.10707864022474        1.10881784595942        1.18820495586036
H           -6.40526912786992        0.23781993940773        1.15083291495379
H           -6.81997506128852       -2.18585664638202        1.33833527145045
H           -4.92072710962050       -3.74206534864261        1.59713636264792
H           -2.61234120470171       -2.86707620208330        1.64635353863655
H           -0.90973596806353        2.27027568059850        2.69209952819230
H           -0.98634543743403        4.59526538347274        1.84934692739814
H           -1.69130166980902        5.03468925086754       -0.47251630755403
H           -2.33466480208507        3.16294783884903       -1.94127671758799
H           -2.25963335979989        0.84794929859605       -1.09986449855041
H           -2.45543637495447       -1.96045840355063       -0.86094792247695
H           -2.47840435271151       -3.20039422343528       -2.80406795864629
H           -1.03433755345357       -4.18513144075563       -3.06525598478571
H           -1.27700351796431       -2.72100518840188       -4.00934459998577
