  116
       -173.04178088
 C          9.4308678385       -3.4639388947       -0.7184055139
 C          8.8383175041       -2.1966073268       -1.3506145849
 C          9.2383193114       -2.1182515262       -2.8307312344
 C          9.4337936552       -0.9807154973       -0.6347005823
 C          7.3220406203       -2.2590495766       -1.2434830672
 C          6.6313392841       -3.2925069265       -1.8819110068
 C          5.2620232416       -3.3970848752       -1.7817705972
 C          4.5361001369       -2.4614416303       -1.0481273257
 C          5.1815434240       -1.3835009166       -0.4161885079
 C          6.5792300480       -1.3386444614       -0.5280135108
 B          4.2908090455       -0.3820458611        0.3532392210
 C          4.5681534649        0.9821341090        1.0252624443
 C          5.7499849409        1.7317176300        0.9301591113
 C          5.9482090397        2.9375469744        1.5768784911
 C          7.2399779485        3.7341378462        1.4689065892
 C          7.8397723622        3.9097581136        2.8711255785
 C          8.2881254921        3.0484679442        0.5876751898
 C          6.9288525960        5.1090356531        0.8609318837
 C          4.9022808500        3.4310892172        2.3607652182
 C          3.7099321105        2.7494704651        2.4613170281
 C          3.5309527359        1.5408922071        1.7926371777
 O          2.2908782664        0.9856770123        1.9457016385
 C          1.9137863525       -0.0966382549        1.2298996174
 C          0.5744398258       -0.4506783110        1.2773414045
 C          0.1272374472       -1.5128760002        0.4971575478
 N         -1.2491711184       -1.7777228129        0.4336299959
 C         -1.8356664198       -2.9632441766        0.8062155287
 C         -1.2327010248       -4.1339216246        1.2342840481
 C         -2.0539515478       -5.2072846308        1.5368330903
 C         -3.4398161138       -5.1031638403        1.4030779358
 C         -4.0495342145       -3.9308276329        1.0021717295
 C         -3.2509971289       -2.8205355783        0.7167297290
 C         -3.4966224759       -1.4804625272        0.2966199726
 C         -4.6954021919       -0.7560523101        0.0821076779
 C         -6.0086743681       -1.3471463226        0.3233487907
 C         -6.3514081207       -1.8366908995        1.5855085723
 C         -7.6079316596       -2.3598885746        1.8164934545
 C         -8.5396538448       -2.4204703174        0.7920784929
 C         -8.2008254795       -1.9605420300       -0.4713789848
 C         -6.9503748990       -1.4271292522       -0.7050966426
 C         -4.5242701004        0.5565552463       -0.3927021181
 C         -3.2608141838        1.1075781213       -0.7333341353
 C         -2.0603484548        0.3971349431       -0.4875332769
 C         -0.7527976664        0.9727906282       -0.8117877049
 C         -0.3180424304        2.1416830438       -0.1858120651
 C          0.9374818955        2.6537982173       -0.4501593192
 C          1.7734099850        2.0197658542       -1.3547298750
 C          1.3357069845        0.8787880401       -2.0093989580
 C          0.0846262074        0.3589614837       -1.7435934576
 C         -2.2261885211       -0.8799500752        0.0748835983
 C         -3.5085477372        2.3932213812       -1.2989332874
 C         -2.7140343095        3.3837229250       -1.8815732524
 C         -3.3164042050        4.5464813806       -2.3182479646
 C         -4.6886270609        4.7602897183       -2.1838644990
 C         -5.5060026481        3.7875212044       -1.6305971658
 C         -4.9129431532        2.6071363806       -1.2183587342
 N         -5.4977605494        1.4914276692       -0.6561696485
 C         -6.8498513229        1.4369986683       -0.2793604877
 C         -7.1901226571        1.2431257537        1.0558899462
 C         -8.5194323338        1.1901325872        1.4250269650
 C         -9.5147130038        1.3446663445        0.4733647133
 C         -9.1761855995        1.5612304217       -0.8513056947
 C         -7.8479073788        1.6100676370       -1.2320785689
 C          1.0174549614       -2.2828409879       -0.2442749630
 C          2.3621992358       -1.9353215601       -0.2518930672
 C          2.8355197257       -0.8203020229        0.4564601411
 O          3.1887037086       -2.6929527476       -1.0077390492
 H          9.1374666133       -3.5337346494        0.3269780986
 H         10.5173833274       -3.4388235079       -0.7716989715
 H          9.0849035689       -4.3584707296       -1.2288945044
 H         10.3204554148       -2.0532908988       -2.9234436604
 H          8.7986863612       -1.2367107754       -3.2923312012
 H          8.9037775093       -2.9931002203       -3.3806644609
 H         10.5155316053       -0.9839340845       -0.7544179528
 H          9.2151331122       -1.0065754407        0.4303438725
 H          9.0524162148       -0.0536345217       -1.0565809402
 H          7.1644885565       -4.0356705057       -2.4549458503
 H          4.7296277657       -4.2057885421       -2.2593628956
 H          7.0819353234       -0.5460235520       -0.0033094026
 H          6.5265221952        1.3357753309        0.3003815693
 H          8.7744090979        4.4639182353        2.8129019525
 H          8.0413790174        2.9382086360        3.3175304231
 H          7.1644120055        4.4516532771        3.5271143652
 H          7.9260951235        2.9285306345       -0.4308950237
 H          9.1882105810        3.6594147743        0.5537121057
 H          8.5597166440        2.0746185904        0.9884176015
 H          7.8423509784        5.6919813445        0.7619141369
 H          6.2340756520        5.6679441930        1.4817406910
 H          6.4853664934        4.9914137547       -0.1257158288
 H          5.0087732813        4.3653596397        2.8907596138
 H          2.8931611894        3.1402782466        3.0492758862
 H         -0.1154737157        0.1191390539        1.8784239652
 H         -0.1597348977       -4.2052718563        1.3248075471
 H         -1.6182803097       -6.1364612231        1.8698738190
 H         -4.0517747770       -5.9655231263        1.6244484509
 H         -5.1216399513       -3.8785968971        0.9041313637
 H         -5.6283246590       -1.7798108889        2.3863579057
 H         -7.8645029691       -2.7218909771        2.8016930173
 H         -9.5220337716       -2.8293544966        0.9748716881
 H         -8.9169348453       -2.0215338238       -1.2778966808
 H         -6.6821995562       -1.0852941294       -1.6946319770
 H         -0.9644094796        2.6274346995        0.5309468169
 H          1.2719324752        3.5455599517        0.0595649176
 H          2.7614767866        2.4105931115       -1.5467613485
 H          1.9771054988        0.3903892852       -2.7284225229
 H         -0.2571197492       -0.5260040504       -2.2608392246
 H         -1.6517042443        3.2413810645       -1.9936120920
 H         -2.7095005493        5.3165649652       -2.7716573220
 H         -5.1200080576        5.6901872497       -2.5207797803
 H         -6.5684833376        3.9471168824       -1.5248753091
 H         -6.4081896394        1.1351541996        1.7923135928
 H         -8.7801054416        1.0312425818        2.4603057666
 H        -10.5527490626        1.2994658406        0.7654391890
 H         -9.9494642839        1.6862363336       -1.5945061119
 H         -7.5765474518        1.7570496851       -2.2669764636
 H          0.6684737825       -3.1064657832       -0.8466166493
