65
 energy: -101.570773304053 gnorm: 0.000060047174 xtb: 6.7.1 (edcfbbe)
N          -10.65791584423037        0.01887736112643        0.02900553658027
C           -9.50660220060074        0.01463022507292        0.02090973844913
C           -8.10241240743274        0.01002691665559        0.01218902281062
C           -7.39051156034993       -0.74363768293787        0.95638963261486
C           -6.01665942968892       -0.75104340740793        0.93835775062729
C           -5.29502885688358        0.00406292374917       -0.00245294647822
C           -3.84341795348941        0.00292846225950       -0.00749737245293
C           -3.12630703455659        1.24089747166682        0.01269746341227
C           -3.78152249329527        2.47137572110283        0.13605740438283
C           -3.09146552715553        3.67592153428633        0.05758191677149
C           -1.72764794276324        3.67038538448153       -0.15859318539335
C           -1.04197237284308        2.46261066353545       -0.21386001592836
C           -1.70093629393585        1.23685284205712       -0.06081451841895
C           -0.98779395775526        0.00000012872879       -0.00947902878447
C            0.46679747837152       -0.00072865955237       -0.00720178376143
C            1.19352450550004       -0.77124345585001       -0.92610474311658
C            2.57026934263470       -0.76518837578693       -0.93210385664028
C            3.27684516405415       -0.00223996092104       -0.00078407601833
N            4.67453526533794       -0.00326969935925        0.00266110092842
C            5.48279763196766       -1.12391380032796       -0.03610652730855
C            5.13385958853639       -2.46753432904990       -0.02995519237908
C            6.15423527266638       -3.40020079994347       -0.04235774743227
C            7.49263118345646       -3.01389839821238       -0.04986231304818
C            7.84665855028289       -1.67824289306015       -0.02808995812635
C            6.83904951937393       -0.72350093615878       -0.01575058300605
C            6.84007459003964        0.71349819092579        0.03211669456908
C            7.84913991249293        1.66661798182558        0.04988612057223
C            7.49715862891355        3.00283688520524        0.07027201467590
C            6.15943954923842        3.39128896425567        0.05610587915824
C            5.13764779676897        2.46026334640363        0.03808103363564
C            5.48437655204039        1.11607649548658        0.04562519399037
C            2.56687877335280        0.76174910773604        0.92712596109432
C            1.19023016753047        0.76931882339608        0.91474472258928
C           -1.70318363174887       -1.23553890483014        0.04070975929993
C           -1.04689590681893       -2.46301017925143        0.19156660230849
C           -1.73544605777418       -3.66911156099805        0.13546307441113
C           -3.09955923150669       -3.67132660518503       -0.07898349787917
C           -3.78698345843709       -2.46509773876412       -0.15477360736109
C           -3.12865249845629       -1.23635439461865       -0.03091227726914
C           -6.02320582084376        0.76084475623311       -0.93682621845347
C           -7.39721720136507        0.75942399075813       -0.94035124829786
H           -7.93307266241217       -1.31105299245358        1.69909356919343
H           -5.47623116847288       -1.31245230218794        1.68639792925362
H           -4.84738556112023        2.49202794673263        0.30336591387969
H           -3.63009955075376        4.60724945030937        0.15021810078464
H           -1.18612861015502        4.59834606334355       -0.26811529080749
H            0.02319289208768        2.47363129532818       -0.38545937919413
H            0.65950364836144       -1.33934847234621       -1.67345817169272
H            3.11197921326923       -1.32926667668790       -1.67666238804926
H            4.10097162686434       -2.77941067431616       -0.00422278224251
H            5.90792316866628       -4.45199106322317       -0.04160204605259
H            8.26147552772108       -3.77239582150242       -0.06213323659087
H            8.88417661375083       -1.37969688902642       -0.01532565764192
H            8.88623190413262        1.36641498433225        0.04227431912228
H            8.26716015020937        3.76008386848912        0.08670171713073
H            5.91481112148197        4.44347072236681        0.05451163349169
H            4.10541012110947        2.77382080160104        0.00723483723250
H            3.10571506044993        1.32535492116035        1.67410835412678
H            0.65334175014894        1.33846783016584        1.65924946876286
H            0.01839620206036       -2.47676992671930        0.36215271717157
H           -1.19589084095001       -4.59844205388238        0.24308440701421
H           -3.64037903720760       -4.60133624660400       -0.17211395170382
H           -4.85322684513640       -2.48290556190327       -0.32013001570985
H           -5.48829474747278        1.31910410501991       -1.69115619614400
H           -7.94518407244806        1.32869973665947       -1.67766910074526
