65
 energy: -101.570734508374 gnorm: 0.000054687412 xtb: 6.7.1 (edcfbbe)
N          -10.65755816496619       -0.00402456850471        0.00562006321614
C           -9.50623210221755       -0.00352181210787        0.00510700692287
C           -8.10193644461153       -0.00292215935055        0.00447730721430
C           -7.39290922593890       -0.69202311791703        0.99868253902096
C           -6.01888391316640       -0.69769608187605        0.98673533101224
C           -5.29527954777686       -0.00179147750010        0.00317131021319
C           -3.84314713767427       -0.00126845251175        0.00250355149558
C           -3.12823671969570        1.23729894957831       -0.03818770790701
C           -3.78615486975314        2.47091979364093        0.02100836099004
C           -3.09707315057047        3.67161031737623       -0.11065479029105
C           -1.73174376950697        3.65825770671234       -0.31617184929468
C           -1.04392755848529        2.45031315936518       -0.31067610534615
C           -1.70257781351765        1.23211260555778       -0.10552285297714
C           -0.98866790267246       -0.00032058592735        0.00145725823990
C            0.46645556896205        0.00012810087814        0.00095872889097
C            1.19065528088754       -0.79650498020033       -0.89681061489530
C            2.56743053466634       -0.78771028985856       -0.90830635949339
C            3.27597404572511        0.00077931081766        0.00015270423872
N            4.67349559852080        0.00105932614917       -0.00023188436125
C            5.48307509136787       -1.11936580791553       -0.02695099072119
C            5.13665023373907       -2.46349243092085       -0.00252319940058
C            6.15841787816496       -3.39473360058756       -0.00855709483577
C            7.49617669966814       -3.00675775901116       -0.02644810912817
C            7.84803421262433       -1.67039985237675       -0.02096444552171
C            6.83889902868138       -0.71723323266499       -0.01605153147300
C            6.83863650776781        0.72016626059159        0.01427167114386
C            7.84741668648128        1.67371111439977        0.01854508703631
C            7.49506186625296        3.00993693619815        0.02420384907096
C            6.15714668188505        3.39740940213846        0.00711290961235
C            5.13572356151494        2.46578555239175        0.00173907780898
C            5.48266750859460        1.12178967585464        0.02598264529899
C            2.56758666460885        0.78897574821555        0.90898577134572
C            1.19079822234580        0.79712665859338        0.89828556687382
C           -1.70167962099781       -1.23323217982642        0.10891758381338
C           -1.04209139370838       -2.45100348641136        0.31361249129894
C           -1.72910114495976       -3.65940559811243        0.31949342916952
C           -3.09455024429747       -3.67365826173210        0.11483597472642
C           -3.78451703372196       -2.47341303979866       -0.01626850799811
C           -3.12737876225932       -1.23936135019684        0.04257843789988
C           -6.02035183947206        0.69353646109345       -0.97971538233031
C           -7.39438533463481        0.68675228888346       -0.99038041254057
H           -7.93799115177774       -1.21127832672489        1.77409698880433
H           -5.48039756775927       -1.20972579874994        1.77077816952883
H           -4.85338243980976        2.49741286368078        0.17874624100937
H           -3.63776608747597        4.60534407995414       -0.06708115178498
H           -1.19074773753364        4.58098128061684       -0.46540088303348
H            0.02255436711696        2.45488806299950       -0.47442318229582
H            0.65430020318220       -1.38826303756494       -1.62393034708736
H            3.10698773035120       -1.37051362985125       -1.63978112470499
H            4.10469464123083       -2.77737366659947        0.03236504462625
H            5.91354378141952       -4.44676778259010        0.00522278439744
H            8.26612660001105       -3.76419021118884       -0.03376375042808
H            8.88506505516026       -1.36996902780153       -0.01561753704954
H            8.88455628013797        1.37366758152495        0.01258642877213
H            8.26473051441042        3.76765967773555        0.03102851338547
H            5.91187245602801        4.44935208157479       -0.00655008947122
H            4.10362926022673        2.77927998306652       -0.03253016402821
H            3.10729677634274        1.37203203248280        1.64014700347498
H            0.65458906304037        1.38862637434148        1.62572185202158
H            0.02449573639927       -2.45487890326910        0.47668620435666
H           -1.18739587247279       -4.58177629426166        0.46833167573994
H           -3.63465055600641       -4.60774807414797        0.07153854003211
H           -4.85183188746411       -2.50059706959097       -0.17330342418197
H           -5.48302235859557        1.20597855942351       -1.76428185849868
H           -7.94061683019254        1.20554687626651       -1.76529462966360
