65
 energy: -101.637105578666 gnorm: 0.000079536553 xtb: 6.7.1 (edcfbbe)
N          -10.64571559299287        0.00404201796120       -0.01114055523580
C           -9.49736816856710        0.00338297173974       -0.00884860397025
C           -8.08606788703584        0.00230478078390       -0.00588107543233
C           -7.39042521017035       -0.25134532604131        1.17863503908975
C           -6.01056243245768       -0.25320442743932        1.17416862883584
C           -5.30247251922475       -0.00034264716234       -0.00000464042273
C           -3.82430418146119       -0.00175541744431        0.00328652525083
C           -3.12660125584667        1.20370141590274       -0.16178532278272
C           -3.79928501867549        2.44732313690021       -0.29845311294680
C           -3.11053151909622        3.60659743234591       -0.48317409958626
C           -1.70249326021635        3.59493709741971       -0.54639497128162
C           -1.01893214100712        2.42802425463962       -0.39419950297009
C           -1.69666905613852        1.19911595999477       -0.17580130613508
C           -1.00117461173550       -0.00446052800999        0.00930806888378
C            0.47791384973234       -0.00572626390623        0.01026113249863
C            1.18510126864401       -0.56735650656218       -1.04922479063625
C            2.56646408806992       -0.56098663070634       -1.05743009649673
C            3.26815799413327       -0.00363934932679        0.00787469135006
N            4.67163340994157       -0.00086636062289        0.00531268008265
C            5.48116782123091       -1.09870308225650       -0.20671029627775
C            5.13386405620372       -2.42715673171452       -0.40994826052282
C            6.15481254167441       -3.34374014051692       -0.57412055682358
C            7.49322457896397       -2.95748777644993       -0.53104135014126
C            7.84541496826956       -1.64147331872333       -0.30586475517482
C            6.83679852300042       -0.70111890547739       -0.13731702528477
C            6.83435780926651        0.71097968521493        0.12579712138229
C            7.83967024318855        1.65678286783880        0.28324618121737
C            7.48286594352915        2.97107665461422        0.51116254711346
C            6.14292976918984        3.35019708897303        0.56797558268551
C            5.12519705589810        2.42808861548482        0.41506263112004
C            5.47738769091855        1.10140091226202        0.20876240726994
C            2.56750360543505        0.55162040003575        1.07492303711874
C            1.18604618512008        0.55589193346901        1.06909542924184
C           -1.69974421237721       -1.20662490924823        0.19164313665395
C           -1.02517996038235       -2.43679710212498        0.41272311851880
C           -1.71155686393776       -3.60250876411287        0.56145894941755
C           -3.11932267424156       -3.61156170922828        0.49182778643771
C           -3.80517018246938       -2.45094698842280        0.30470777240932
C           -3.12961189523303       -1.20851884449105        0.17145653790195
C           -6.00510579892597        0.25391144609577       -1.17714923252713
C           -7.38495339159704        0.25465985645168       -1.18743719398976
H           -7.93893500877973       -0.44444195877200        2.08909703737190
H           -5.46849344194904       -0.44681162139526        2.08811817469477
H           -4.87809282804305        2.46086607127511       -0.25125567117844
H           -3.63772027596622        4.54396297810872       -0.58601196772481
H           -1.17238029352137        4.52147482862328       -0.71236718485036
H            0.05984657502060        2.41988774177507       -0.43967325124109
H            0.64379982669306       -0.99856125739081       -1.87886263881676
H            3.10883216718923       -0.97668077655713       -1.89356216103331
H            4.10040055217737       -2.73914120046173       -0.42999464503882
H            5.91031798103617       -4.38351588975222       -0.73681060537627
H            8.26275673739665       -3.70334324168958       -0.66711372006023
H            8.88291870846575       -1.34563839679507       -0.25766380244336
H            8.87815742806145        1.36638767271542        0.22431355847409
H            8.24977067466271        3.72117842067824        0.63846728318931
H            5.89460164685108        4.38877410433580        0.73250838246954
H            4.09038688047445        2.73468939427728        0.44564062536347
H            3.11068126383383        0.96816309554409        1.91011277344587
H            0.64555009997896        0.98636752425393        1.89963804672658
H            0.05341933245708       -2.43055316346648        0.46281859929424
H           -1.18393855241037       -4.53013354564412        0.72930058076268
H           -3.64868533610947       -4.54799646335025        0.59193956652906
H           -4.88379560784486       -2.46250895522216        0.25293397201819
H           -5.45883759931029        0.44662053894931       -2.08878645716173
H           -7.92926654646733        0.44883450734439       -2.10018700804625
