60
 energy: -90.423877914700 gnorm: 0.000050133522 xtb: 6.7.1 (edcfbbe)
C            0.66408686510160        1.43280146412400       -1.63357039415383
C           -0.17101577773900        0.67683074183277       -0.64345026165144
C           -1.54901800150779        0.65131507404020       -0.79631873284262
C           -2.37072014257472       -0.01288187860097        0.10333764477861
N           -3.76263235887702       -0.01004973555978       -0.11056637087850
C           -4.54317625553820       -1.11180378804846       -0.37727303912021
C           -4.16387705788543       -2.43475573862563       -0.55374402992184
C           -5.15525463676497       -3.35559437916381       -0.83208449737342
C           -6.49083979696941       -2.97379130199122       -0.94385797180322
C           -6.86947054525419       -1.65434017867242       -0.79589448028471
C           -5.89200451255850       -0.70870049925798       -0.51490924277663
C           -5.91076770214935        0.71510406845835       -0.32794859420601
C           -6.91569269680170        1.67376365998195       -0.33801057267994
C           -6.57446189151737        2.99234437754343       -0.11218935975240
C           -5.25260048603762        3.36256131516134        0.12901103139395
C           -4.23496553678965        2.42865509064524        0.14690547735891
C           -4.57182966685553        1.10420701173523       -0.09071051026289
C           -1.82476945781654       -0.64906136285589        1.22145476848355
C           -2.69700340330763       -1.30692565418020        2.24552329736557
C           -0.44739039380493       -0.62575733548278        1.36534030238527
C            0.38721951489865        0.00744819991415        0.44912707197580
C            1.84225910504745       -0.04090592572197        0.68152449548468
C            2.70755529275091       -0.54681048081541       -0.28618645085712
C            4.06760922757623       -0.60486586826157       -0.05658271170321
C            4.59393839134441       -0.15797537864546        1.15411097848417
C            6.04449885061455       -0.22925422657462        1.45785295118726
O            6.45033094408573       -0.40527487450688        2.58970690934108
C            6.97933450993729       -0.07595943398587        0.31254412368547
C            6.70434768701046        0.78067758738739       -0.75107434686286
C            7.61776753087940        0.92143311440754       -1.77971335599808
C            8.80453598899612        0.20614444081067       -1.76161283241476
C            9.08887968886281       -0.63905210007968       -0.70088145983212
C            8.18631420380173       -0.77111331707215        0.33696323597404
C            3.72661040317221        0.31968374269223        2.13540855960049
C            2.36915194112240        0.38281771080017        1.90001360051823
H            0.89465299660689        0.80588036697746       -2.49514730818756
H            0.12120654542251        2.30374764212165       -1.99488033253281
H            1.60144722622781        1.75927069697375       -1.19000074138793
H           -2.00363741818366        1.15749256504974       -1.63635714209667
H           -3.12651596569543       -2.72960357466015       -0.49174947009657
H           -4.88956944217336       -4.39336753533326       -0.97146507691312
H           -7.23639134374360       -3.72431900085838       -1.16096494772354
H           -7.90254510034138       -1.35858266385018       -0.90084697254427
H           -7.94151890673310        1.38900861599037       -0.51783334696737
H           -7.34124159215308        3.75282323093867       -0.11803595170441
H           -5.01993263626570        4.40217154438544        0.30754986064736
H           -3.21199969627779        2.71559186574398        0.34150313315061
H           -2.15942009917515       -1.42346227830704        3.18326988576517
H           -3.01657247097502       -2.29347644702601        1.90990734891975
H           -3.59341716430965       -0.71445280150851        2.42201845817380
H            0.00008642414851       -1.12179895143964        2.21522845055474
H            2.30392787783341       -0.91550051915610       -1.21736854912943
H            4.72250933654914       -1.02160353474658       -0.80800564494083
H            5.78779563581168        1.35277325166949       -0.75878540564336
H            7.40429789147962        1.59205863713719       -2.59918875732116
H            9.51126035042761        0.31405170759335       -2.57122738773677
H           10.01760717882370       -1.18980493548981       -0.68182359077745
H            8.39482225026124       -1.41728008707318        1.17672116093570
H            4.14170136064937        0.64556131391312        3.07761975975625
H            1.70449693734921        0.77190974954053        2.65761933515998
