60
 energy: -90.423935156755 gnorm: 0.000057402379 xtb: 6.7.1 (edcfbbe)
C           -0.00064272816220       -2.31941099194565       -1.96682954948741
C           -0.51195307065988       -1.21949641793749       -1.08526154736271
C           -1.87995867815386       -1.07232420589007       -0.90981142716812
C           -2.40893517572731       -0.08890976320077       -0.08624963598483
N           -3.80724622207104        0.02014709513050        0.04129501773450
C           -4.63851256161867       -0.93339844957800        0.58567441736647
C           -4.31846729064807       -2.16819879179394        1.13059505611363
C           -5.35167266940109       -2.93435618764619        1.63421606338666
C           -6.67080805613823       -2.48539953174098        1.60434268887566
C           -6.99234810674331       -1.25236103249729        1.07303480340950
C           -5.97212130903607       -0.46300111327976        0.55826165753852
C           -5.93104636412612        0.83684494386117       -0.05093605128155
C           -6.89910106627154        1.78019762789645       -0.36966900059200
C           -6.50574499001792        2.94774170910721       -0.99282207834470
C           -5.16926170768791        3.17590824469520       -1.31500221956951
C           -4.18728809058611        2.25345747821594       -1.00985977172272
C           -4.57403852911351        1.09078929804014       -0.35872333954542
C           -1.56289903756759        0.76343311853425        0.62843260655879
C           -2.10956261384275        1.77833880232524        1.58434477027262
C           -0.19833610941811        0.61730323947136        0.44315298478051
C            0.34067720117005       -0.34117623135259       -0.41048144571891
C            1.80645720051502       -0.39640366512683       -0.55706769677640
C            2.61630888362510       -0.50626464093026        0.57170339881480
C            3.99192865202896       -0.52200199120030        0.45659782840729
C            4.59043993269564       -0.42790518107934       -0.79848222772176
C            6.06328617088611       -0.47199787366388       -0.97442345642826
O            6.57278270378872       -0.97862058488821       -1.95445757969923
C            6.88564527382844        0.13677392715761        0.10326907746420
C            8.14203275046161       -0.40192901831341        0.37193387663677
C            8.94325069180278        0.15094941407623        1.35246124779345
C            8.50661195090551        1.26080377907165        2.05820278336239
C            7.26906327470968        1.81809660660226        1.77834236122104
C            6.45699426617768        1.25912492283836        0.80866972198657
C            3.78226653111701       -0.33542425349758       -1.93016699082620
C            2.40840004501855       -0.30922967963609       -1.81066101454439
H            1.01201708428667       -2.60594166592844       -1.69468057876519
H           -0.64746720846128       -3.19114013528139       -1.89132392332613
H            0.00348887432522       -2.00124470505024       -3.00950384643963
H           -2.55937063480202       -1.73527851534154       -1.42691091898990
H           -3.29568377704269       -2.51414534797915        1.16066231592377
H           -5.13312835163787       -3.90174734602111        2.06221031973982
H           -7.45016869080366       -3.11474334018101        2.00788101605561
H           -8.01426231413285       -0.90422524604753        1.05712897288311
H           -7.93769783068177        1.59801252495686       -0.13759592467769
H           -7.24329464322159        3.69454791087335       -1.24695825158313
H           -4.89675608857356        4.09179902822157       -1.81887856500693
H           -3.15576884198456        2.42205924048564       -1.28284480566484
H           -2.48497041964050        2.65295987678745        1.05325054176389
H           -1.33629275946710        2.10413498182968        2.27566280815866
H           -2.93888443362505        1.35940828606003        2.15240319240419
H            0.47612764816128        1.27480374578948        0.97392383812687
H            2.15583393743249       -0.59504347909775        1.54517238450637
H            4.60542592473937       -0.63147456984911        1.33919009547643
H            8.46917693604078       -1.26053416599509       -0.19552065783143
H            9.91133653899537       -0.27829305261351        1.56411345114816
H            9.13389679198023        1.69705533124405        2.82161726950953
H            6.93663881103083        2.69275845765570        2.31806837241594
H            5.50024920121511        1.70600910271770        0.58006050204793
H            4.25453668927305       -0.27322646250398       -2.89935724553136
H            1.79198687923557       -0.20571257130306       -2.69079516602821
