60
 energy: -90.336559203175 gnorm: 0.000114393992 xtb: 6.7.1 (edcfbbe)
C           -0.03951991061465       -2.29060265486103        1.95363024596466
C           -0.53883241789088       -1.27302919880836        0.97307126332840
C           -1.90042594030801       -1.05367342353661        0.87660816285101
C           -2.43388529515091       -0.07620566840290        0.04156078010190
N           -3.82865784021559        0.09215197040320        0.00111766899278
C           -4.51999728871815        1.22940717861583        0.34980468291251
C           -4.03968090161697        2.42409200519650        0.86900669850222
C           -4.95927521001946        3.41430492287664        1.15826215731467
C           -6.32296677949455        3.22119929634866        0.95013873229182
C           -6.80945523896887        2.02013962697834        0.46530043865049
C           -5.90655328645741        1.01115286718275        0.16727177258227
C           -6.04440140268454       -0.34085920440811       -0.30598120474470
C           -7.12845864928651       -1.12681888943630       -0.66558522819390
C           -6.89371703335108       -2.42192064564355       -1.09244522233226
C           -5.59958034923997       -2.93105923391526       -1.17248749501300
C           -4.50239380966983       -2.16659879803489       -0.82322576172706
C           -4.73448343167694       -0.87162661190318       -0.38026693400805
C           -1.58690611509282        0.70928505190865       -0.75026011608797
C           -2.12622408788441        1.71559328663124       -1.72140294243650
C           -0.22710155869580        0.48829759678416       -0.64740702051959
C            0.32739039067721       -0.48960757048037        0.18646845343596
C            1.77704395286953       -0.64268193474114        0.20209970333135
C            2.59686297840514        0.49669421951201        0.26619827606187
C            3.96372581650687        0.39899973786978        0.28005275176778
C            4.59474378349504       -0.85712521177292        0.16963630139072
C            6.02137428458896       -1.04366868654226        0.17511490744313
O            6.52939942003267       -2.16665992073304        0.45377153944986
C            6.90975346357754        0.09143459045817       -0.11227188018806
C            8.16530501448319        0.13662731358866        0.50453449961455
C            9.03091389064594        1.17587407003460        0.23516482852137
C            8.67707155671170        2.17049314381008       -0.66419721623049
C            7.45143527323778        2.10591828453626       -1.31034973649426
C            6.57275875085115        1.07392794719218       -1.04736086942268
C            3.77218534839627       -2.00789428470348        0.14316839814096
C            2.40870718819733       -1.89559405378530        0.14428828208784
H            0.96010058115107       -2.04153818476505        2.30040139402998
H           -0.70890684629211       -2.34509804127095        2.81007266151476
H           -0.00641150474635       -3.28068431452229        1.49822277614990
H           -2.57902312528497       -1.63316379433763        1.48734737722411
H           -2.98627337676683        2.56475462080803        1.05743546124852
H           -4.61466972405942        4.35536159809925        1.56023188998333
H           -7.01018184522853        4.01988466663802        1.18549922333069
H           -7.86896457061054        1.86680908778180        0.32753860468243
H           -8.13241150538235       -0.73371092469469       -0.61448249830578
H           -7.72534922443692       -3.05031538899627       -1.37367877723921
H           -5.45081751949240       -3.94345269979589       -1.51687715357786
H           -3.49885771219779       -2.55783518029358       -0.89428897056102
H           -2.26364221686420        2.68612412256263       -1.24470350903379
H           -3.09032122030540        1.39982987932772       -2.11583908022740
H           -1.43341819790512        1.84396456092848       -2.54970380408824
H            0.43977345420475        1.06699441316650       -1.27021731306693
H            2.13503658528508        1.46933177861064        0.36403629532429
H            4.55757543933550        1.29106491741469        0.41042755285495
H            8.43453127274041       -0.64228392997171        1.20119941609871
H            9.99097611883635        1.20983587678703        0.72970723563789
H            9.35762698385888        2.98216144598963       -0.87390992912913
H            7.18226613488715        2.85972900953678       -2.03646311813759
H            5.64244613345202        1.00842962974601       -1.59160441674147
H            4.25154245709978       -2.97300622290525        0.08179645281888
H            1.80863637724508       -2.78769237513735        0.04776255209143
