  78
       -120.37602554
 C          1.6491211813        4.2164918846        1.1363093424
 C          0.5959455693        3.1370611320        0.8829921234
 C         -0.0149541679        2.7290205481        2.2412146361
 C         -0.5351497099        3.6239182340       -0.0038977298
 C         -0.8059271968        4.9604054590       -0.2526976521
 C         -1.9069565929        5.3386638467       -1.0028207909
 C         -2.7565382258        4.3786874855       -1.5229483469
 C         -2.4976097472        3.0392922221       -1.3050395110
 C         -1.3971659760        2.6626469741       -0.5450293461
 N         -1.0752938483        1.3110112779       -0.3579185465
 C         -2.0047867408        0.3207842282       -0.1348602803
 N         -3.2841918771        0.5925612900       -0.2336681848
 C         -4.1508226547       -0.4290322094        0.0905887103
 C         -5.5572176407       -0.1582726961        0.0956894320
 C         -6.0385300112        1.1334456092       -0.1708304158
 C         -7.3924074485        1.3854052725       -0.1669415437
 C         -8.2978591724        0.3670861493        0.1003675428
 C         -7.8315947305       -0.9141016550        0.3695265943
 C         -6.4812636001       -1.1795570258        0.3693531389
 N         -3.6999934203       -1.6417654717        0.3658206040
 C         -2.4030344294       -1.8868729163        0.3916676545
 C         -1.8942201133       -3.2098358664        0.5892662320
 C         -2.7649008325       -4.3033551709        0.7207670829
 C         -2.2635458128       -5.5752334890        0.8782750410
 C         -0.8909268502       -5.7944074550        0.9043725180
 C         -0.0207168494       -4.7192565083        0.7801742927
 C         -0.5090136089       -3.4406156953        0.6295174065
 N         -1.5125513396       -0.8531525429        0.2288447707
 C          0.2808224421        0.9798970355       -0.3373540548
 C          0.7112131570       -0.2235890587       -0.8923609971
 C          2.0481781192       -0.5596006787       -0.7826166333
 C          2.8089624806       -1.7224950853       -1.1454766397
 C          2.4742368312       -2.9400533125       -1.7211932348
 C          3.4794886595       -3.8631713847       -1.9360298118
 C          4.8008870887       -3.5780837547       -1.5992238070
 C          5.1555381811       -2.3748905918       -1.0174198609
 C          4.1465588778       -1.4551001161       -0.7719106078
 N          4.2197149590       -0.1919910897       -0.2126460730
 C          5.3840348237        0.4321347110        0.2585791650
 C          5.7020610560        1.7208709125       -0.1607595194
 C          6.8463894861        2.3364528815        0.3112651392
 C          7.6834349207        1.6728143000        1.1930524864
 C          7.3698521973        0.3888420739        1.6074457106
 C          6.2229639176       -0.2320971077        1.1485544096
 C          2.9572463769        0.3546194781       -0.2049756211
 C          2.5282105925        1.5752876935        0.3046196685
 C          1.1833255220        1.8904829142        0.2485671739
 H          2.4151291755        3.8471861968        1.8130795746
 H          1.1935512834        5.0795201207        1.6139589878
 H          2.1168531820        4.5303276218        0.2057050873
 H         -0.4873104851        3.5904168276        2.7086434348
 H         -0.7645504822        1.9517962758        2.1172241036
 H          0.7637347631        2.3520256415        2.9010559217
 H         -0.1624811100        5.7293520009        0.1425750593
 H         -2.1002433627        6.3866351094       -1.1760589078
 H         -3.6148998732        4.6697601990       -2.1090637029
 H         -3.1392837520        2.2790759274       -1.7178682555
 H         -5.3271540894        1.9208015461       -0.3685076940
 H         -7.7531361786        2.3840219114       -0.3708352638
 H         -9.3586818685        0.5699555803        0.1018677115
 H         -8.5352653036       -1.7071364529        0.5804887719
 H         -6.1084625149       -2.1707276472        0.5777916489
 H         -3.8284365402       -4.1223823208        0.6912901373
 H         -2.9410659733       -6.4115892243        0.9777490091
 H         -0.5039025974       -6.7957801570        1.0227114117
 H          1.0478682924       -4.8846597692        0.8007865902
 H          0.1613441508       -2.5989492514        0.5449786553
 H          0.0244686799       -0.8730511875       -1.4074269874
 H          1.4514804822       -3.1577293299       -1.9870116871
 H          3.2421663475       -4.8190602738       -2.3778669611
 H          5.5665630532       -4.3135802004       -1.7959681251
 H          6.1842113252       -2.1592729767       -0.7715274415
 H          5.0594922430        2.2242542862       -0.8677101012
 H          7.0897481353        3.3356112205       -0.0179374590
 H          8.5784017840        2.1548165889        1.5557504189
 H          8.0175686298       -0.1298509741        2.2982170876
 H          5.9619010605       -1.2231483549        1.4878529060
 H          3.2390048362        2.2377173435        0.7695116207
