78
 energy: -120.462439981435 gnorm: 0.000135772702 xtb: 6.7.1 (edcfbbe)
C            1.56437623944293        4.05554650888565        1.27055459674534
C            0.55222183503750        2.96691536303143        0.91285386234951
C           -0.16414391615071        2.53443436763766        2.20941541817778
C           -0.49939088904271        3.45137006305595       -0.06828450333810
C           -0.73731700173401        4.78511259700442       -0.36334976926612
C           -1.75498531070289        5.15260291952274       -1.22731423012143
C           -2.54496735708680        4.18580994407560       -1.82267940529212
C           -2.31159111833935        2.84917735951933       -1.56023040275922
C           -1.30320133515514        2.48493388850752       -0.67888237070363
N           -1.01282651946836        1.12978951211832       -0.42875087430056
C           -1.98291671185816        0.21554364102341       -0.18846960872098
N           -3.25040302567251        0.63497505202927       -0.16984688635654
C           -4.15942521093120       -0.29180532302200        0.09477648836590
C           -5.56047065644252        0.13254250799727        0.13254208615469
C           -5.88929461882084        1.47346971263743       -0.05548802890340
C           -7.21194937009454        1.87062874989192       -0.02239491723296
C           -8.21375772040926        0.93801805530599        0.19779477905546
C           -7.89053427247306       -0.39664872859584        0.38648468599416
C           -6.56989207272217       -0.80086124175034        0.35483931267240
N           -3.88578429386363       -1.57539781313127        0.32013978577804
C           -2.59470571806736       -1.89825346469543        0.29908994540245
C           -2.21940662411287       -3.29475814046281        0.53095788886730
C           -3.20120751225352       -4.26548841313904        0.71269779118131
C           -2.84055851424632       -5.58452386362462        0.91014821246531
C           -1.50206104196367       -5.94480736832349        0.92663546242940
C           -0.52121094648858       -4.98138429782170        0.74848781843130
C           -0.87459819574122       -3.66045939481226        0.55279060708125
N           -1.61300491563436       -1.04113973642887        0.06454223020411
C            0.36019403067141        0.81024697867835       -0.33354850395903
C            0.84816717979095       -0.36157547254753       -0.88365352149716
C            2.20208498231976       -0.63267537251277       -0.76753760668769
C            3.02047082745454       -1.74956416861996       -1.14398571784442
C            2.75218802592127       -2.96329539631658       -1.76273723293654
C            3.79990382600032       -3.83258039484714       -1.99119415799967
C            5.10181351765437       -3.49681067264157       -1.62562567091095
C            5.39188220431105       -2.29696662630855       -1.00432192053843
C            4.33953297423679       -1.43035126563920       -0.74608363870405
N            4.34951091166790       -0.18046063355665       -0.15733914027707
C            5.47429500555992        0.47919652835782        0.35617956766227
C            5.74101179467028        1.79481730787090       -0.01307672342801
C            6.84765382177551        2.44544005126735        0.49979278442158
C            7.70129898688902        1.79080268699679        1.37223524126537
C            7.44044689052808        0.48028349469414        1.73655084130381
C            6.32967528640552       -0.17490650100126        1.23821317918203
C            3.05840588035334        0.30980348822543       -0.16013776921381
C            2.56358836380035        1.48958687853155        0.37569805655867
C            1.20456733122226        1.74038194029574        0.29987293981280
H            2.27754182756108        3.68187841997459        2.00093365208841
H            1.05720714015513        4.90343714779050        1.72366306088278
H            2.10273507300982        4.39376231119030        0.38795543129531
H           -0.67262493279647        3.38731218653757        2.65446108284375
H           -0.90168685359811        1.76041434583864        2.01533755879832
H            0.56106949536731        2.14547997027457        2.92136335615639
H           -0.13412271223501        5.55849857550389        0.08378489014527
H           -1.92750410670426        6.19815521530948       -1.43519130697177
H           -3.33481597502576        4.46931462844702       -2.50199308658549
H           -2.90785445337291        2.08581736692090       -2.03234049193783
H           -5.09510724839626        2.18483528900216       -0.22250372551410
H           -7.46596928246645        2.91066890015125       -0.16757971995250
H           -9.24738258625052        1.25174228575250        0.22310325178985
H           -8.67282232613543       -1.12167931118541        0.55846298036683
H           -6.29765896383807       -1.83453775881649        0.49918975885598
H           -4.23725044969582       -3.96589228597216        0.69291260920721
H           -3.60304342081644       -6.33698236024464        1.05044822459589
H           -1.22328778496849       -6.97752534447015        1.07917724658550
H            0.52209460980346       -5.26210651861242        0.76198891772779
H           -0.12368678663183       -2.89749024350529        0.41768231529184
H            0.18747438693800       -1.05246019061310       -1.37794478628638
H            1.74445669086892       -3.21512739244929       -2.05688961632419
H            3.61459267161675       -4.78360624314959       -2.46799035858561
H            5.90377425692167       -4.18990331020974       -1.83333593617703
H            6.40671159168115       -2.04165809215335       -0.73879817368965
H            5.08697929799162        2.29336236891383       -0.71282173602679
H            7.04967258675607        3.46585643794109        0.20926574050751
H            8.56715813684824        2.30042633646791        1.76701922185969
H            8.10078031671614       -0.03240238446603        2.42026299183784
H            6.11033315692804       -1.18851092690629        1.53858915048730
H            3.23347376339165        2.17838581787384        0.86227471362789
