78
 energy: -120.381624842298 gnorm: 0.000136066742 xtb: 6.7.1 (edcfbbe)
C            1.62914887380125        4.20207520138333        1.14383693006682
C            0.58468521458477        3.11619322634343        0.88252719601146
C           -0.03627305290914        2.70726572234326        2.23555690266799
C           -0.53974913404132        3.59571561028977       -0.01721268131185
C           -0.81083419379345        4.93010444563447       -0.27811208904051
C           -1.90285894998000        5.30009168703412       -1.04500007093455
C           -2.74111580137187        4.33453634263972       -1.57256762245726
C           -2.47995352367912        2.99711335561674       -1.34368597829469
C           -1.39111047063823        2.62983777930774       -0.56412045616154
N           -1.06958288413750        1.27795157818233       -0.35903626226996
C           -2.00006754916191        0.30125388219099       -0.13245440713732
N           -3.28045277982452        0.58430922021808       -0.19620952750434
C           -4.16115539241735       -0.42745206356239        0.11972437214178
C           -5.56374296165120       -0.13386034042830        0.13413653137867
C           -6.02347628598084        1.16793323854987       -0.11778151294176
C           -7.37318281278024        1.44271718284907       -0.10650540808476
C           -8.29430344988103        0.43727207773643        0.15403979788122
C           -7.84901812769979       -0.85386103631203        0.40872653423004
C           -6.50298040879829       -1.14195165343762        0.40096565158163
N           -3.72529623107431       -1.64870257599125        0.37998332441091
C           -2.43244646531477       -1.91487717056948        0.38549076517911
C           -1.93668287078556       -3.24369991412140        0.57832022399498
C           -2.81853592942417       -4.32553649757592        0.72465808748804
C           -2.33049552719286       -5.60326701677732        0.87954730893803
C           -0.96079083719763       -5.83865222839350        0.88886156794429
C           -0.07946590984142       -4.77483675222200        0.75010221386738
C           -0.55445928674460       -3.49072070786105        0.60098854810482
N           -1.53258268647927       -0.89201280307184        0.20290236144074
C            0.29315015058479        0.95270638815359       -0.33288821595313
C            0.73459107713735       -0.24464355114337       -0.88474495874901
C            2.07663012706504       -0.56494273933914       -0.78048123929680
C            2.84903221898195       -1.71928881615794       -1.14436235138405
C            2.52664596542460       -2.94030187876907       -1.72036031792024
C            3.54096763725184       -3.85192437617962       -1.93851841834454
C            4.86010328915686       -3.55193491945526       -1.60491030189651
C            5.20283896982539       -2.34546309421897       -1.02400851073371
C            4.18458386836880       -1.43638783330435       -0.77516870239898
N            4.24599656915452       -0.17300155784599       -0.21689252598684
C            5.40423265461209        0.46223373393303        0.25448046876532
C            5.70985581842301        1.75439082454448       -0.16330096605102
C            6.84890556611193        2.38009418655736        0.30834739326166
C            7.69332710037130        1.72321911306030        1.18809624255360
C            7.39209971000326        0.43591798446896        1.60120299621928
C            6.25029785949318       -0.19484626591727        1.14296743554986
C            2.97628377291752        0.35996540928455       -0.20674314928666
C            2.53385389997766        1.57375832810280        0.30531418580262
C            1.18466621214536        1.87235217534735        0.25342396824574
H            2.39156601469992        3.83746989099723        1.82720948385821
H            1.16430955228782        5.06263404978215        1.61710448781285
H            2.10295893086976        4.51843873559650        0.21718816825952
H           -0.51398663826964        3.56778934404871        2.69904225817286
H           -0.78346816893806        1.92854992181612        2.10705892292524
H            0.73809107810563        2.33251006607270        2.90168319712228
H           -0.17513336303811        5.70337703854771        0.12120404324241
H           -2.09757370859642        6.34636152609900       -1.22677147915144
H           -3.59159316701597        4.61915555228702       -2.17315376348181
H           -3.11322726612741        2.23356522709965       -1.76392160358987
H           -5.30004537532766        1.94526625521032       -0.31205951784265
H           -7.71750464224413        2.44888495880423       -0.30087601639991
H           -9.35158362894421        0.65775524943440        0.16064204568318
H           -8.56498580759023       -1.63713537081515        0.61413874025873
H           -6.14665887707152       -2.14145798400917        0.59765563177489
H           -3.88013284695203       -4.13204649963366        0.70861669582313
H           -3.01683186244573       -6.43075017543902        0.99100265237754
H           -0.58428668808071       -6.84419238267191        1.00538763450343
H            0.98715255369358       -4.95255995255778        0.75874218530970
H            0.12600542072167       -2.65830058999219        0.50452388817727
H            0.05201652772327       -0.90691419747710       -1.38960698125841
H            1.50590143155846       -3.16829305138086       -1.98596476520202
H            3.31367085047313       -4.80966791466452       -2.38171939246272
H            5.63341206529581       -4.27875151076415       -1.80441353672091
H            6.22976024477976       -2.11837685359428       -0.78100302556190
H            5.06163112727737        2.25303116638651       -0.86843418022700
H            7.08238476902873        3.38208938700740       -0.01952090430173
H            8.58403469310284        2.21323877929433        1.55066167832563
H            8.04538451467230       -0.07767462472910        2.29062740569757
H            5.99911784669927       -1.18892377893485        1.48098179605085
H            3.23803209912601        2.24576603021220        0.76646306665961
