78
 energy: -120.381621477264 gnorm: 0.000072153081 xtb: 6.7.1 (edcfbbe)
C            1.67662697906968        4.15835470396201        1.20250253492934
C            0.61883033616935        3.09432993876752        0.90745917026758
C           -0.04717723692223        2.69280551615844        2.24111970088628
C           -0.46996423775037        3.59871925854569       -0.02182688944395
C           -0.70499898591363        4.93853788061885       -0.28962669105220
C           -1.76652675119789        5.33129653531605       -1.08738695778017
C           -2.60917213735687        4.38349837515235       -1.63960795431725
C           -2.38292895676083        3.04084341506672       -1.40406169928743
C           -1.32529094830248        2.65090299716016       -0.59325828931766
N           -1.03832527313073        1.29230558927289       -0.37930873254047
C           -1.99750828728063        0.33899929971971       -0.17613859557236
N           -3.26834331787662        0.65919014117995       -0.26188333796765
C           -4.18437067362511       -0.32615055801045        0.03526185314548
C           -5.57729228352654        0.01001859175563        0.02729229174368
C           -5.99215023712951        1.32613096972175       -0.22829744240009
C           -7.33262341182294        1.64282975041585       -0.23776765496847
C           -8.28863196065034        0.66590637854798        0.00513304253284
C           -7.88790837475612       -0.63916064917218        0.26287536213824
C           -6.55153664977668       -0.96907349377612        0.27584340242969
N           -3.78853210782033       -1.55948514102423        0.30116725351151
C           -2.50425578023903       -1.86383603466660        0.32816910428755
C           -2.05279811268057       -3.20677246581443        0.53154078959127
C           -2.97043902403157       -4.25999865706271        0.66664754372480
C           -2.52545491677061       -5.55177727872140        0.83392788071406
C           -1.16415768743562       -5.82983710227720        0.86704719805754
C           -0.24775730343931       -4.79467089622099        0.73913714777080
C           -0.67957861495452       -3.49686308231758        0.57760721430576
N           -1.57096360084888       -0.86862925622439        0.16063667097280
C            0.31659306043178        0.93899474318373       -0.31972951775820
C            0.74863805087827       -0.26555327209729       -0.86250924197230
C            2.08303151219473       -0.60798946066383       -0.73234674511490
C            2.84441127148874       -1.77297138872530       -1.08566574280764
C            2.51453196985311       -2.98682296844555       -1.67245534403845
C            3.51917622167339       -3.91226469240575       -1.87697188168647
C            4.83648331151119       -3.63304365061824       -1.51906492723775
C            5.18643438906291       -2.43418064483641       -0.92683705169037
C            4.17732122951695       -1.51132375654797       -0.69194012576647
N            4.24769677950591       -0.25092635799645       -0.12813372748126
C            5.40653622422911        0.36588413780063        0.36564126841505
C            5.73797147581297        1.65489314549587       -0.04214199236553
C            6.87710573589650        2.26281651710713        0.45199187948032
C            7.69621725657636        1.59116287713874        1.34442116873765
C            7.36950603326012        0.30687473842140        1.74741218055149
C            6.22727500522716       -0.30610454846726        1.26664412721339
C            2.98621182464544        0.30133178966434       -0.13954991489174
C            2.55348425731599        1.52039948761123        0.36798588420402
C            1.21093614285546        1.84154936304561        0.28877636771971
H            2.41211898082316        3.77602877630552        1.90546673771074
H            1.21542806583995        5.02611914736991        1.66613217454952
H            2.18250314597893        4.46886617321150        0.29095180306687
H           -0.51927723886472        3.56124602269430        2.69549507754680
H           -0.80670956664607        1.93048789317801        2.08906149471959
H            0.70083668180065        2.29923058910653        2.92623570846530
H           -0.06469360829650        5.69811444170623        0.12821554342517
H           -1.93390959002038        6.38139246398939       -1.27423918151244
H           -3.43559408433323        4.68587918201861       -2.26460598285306
H           -3.01964695090229        2.29103522001983       -1.84349476311911
H           -5.24169109662254        2.08088076698455       -0.40881802335398
H           -7.64228731233066        2.65972823766242       -0.43458205507302
H           -9.33849266651391        0.91925567626519       -0.00429491094512
H           -8.63114660314745       -1.40024023143144        0.45438789888821
H           -6.22967476724474       -1.97969386753850        0.47519211273620
H           -4.02505074225067       -4.03341692549301        0.63257369003369
H           -3.23921985796096       -6.35686575879447        0.93680829842883
H           -0.82135215951179       -6.84616179695482        0.99360099489102
H            0.81242044427338       -5.00583561135160        0.76642353823195
H            0.02821423105358       -2.68654485418801        0.48959807272406
H            0.06449973536345       -0.91639565404368       -1.37998669949259
H            1.49546220024398       -3.19862821565581       -1.95728819621880
H            3.28586535982115       -4.86462385907424       -2.32857674486256
H            5.60255483554870       -4.37015973589353       -1.70844057852713
H            6.21212880680706       -2.22300506421766       -0.66501394224227
H            5.10965097672576        2.16499693661674       -0.75702200909608
H            7.13056496379720        3.26246706615627        0.13188546561783
H            8.58705925097262        2.06733686613551        1.72467553230369
H            8.00303178060933       -0.21820990549749        2.44655242191367
H            5.95608995993587       -1.29764165463337        1.59656662941031
H            3.25898384532412        2.17937405849116        0.84561624005890
