  78
       -120.46240394
 C          1.5673300577        4.0606404634        1.2580296772
 C          0.5551555376        2.9689797566        0.9094256604
 C         -0.1555877419        2.5412485611        2.2105809865
 C         -0.5011512099        3.4484529028       -0.0691184406
 C         -0.7441553985        4.7812024144       -0.3649651993
 C         -1.7654596452        5.1447755972       -1.2261717412
 C         -2.5535611318        4.1748734742       -1.8190531816
 C         -2.3151291694        2.8393890208       -1.5558655811
 C         -1.3040684051        2.4790050384       -0.6757996698
 N         -1.0108400673        1.1247223947       -0.4238511300
 C         -1.9806592847        0.2098905029       -0.1843647708
 N         -3.2472214513        0.6322076924       -0.1600541511
 C         -4.1583279732       -0.2932544991        0.1005174558
 C         -5.5581369838        0.1350843203        0.1392787331
 C         -5.8820392640        1.4773789871       -0.0482104732
 C         -7.2030510162        1.8796019212       -0.0139222308
 C         -8.2082314544        0.9506648487        0.2066233436
 C         -7.8900258620       -0.3853277209        0.3939796664
 C         -6.5709223715       -0.7947051300        0.3612606079
 N         -3.8875029864       -1.5784951878        0.3206634279
 C         -2.5972500281       -1.9041373469        0.2962797136
 C         -2.2256890154       -3.3027414228        0.5219207669
 C         -3.2098416312       -4.2674850387        0.7222118764
 C         -2.8538314009       -5.5888374553        0.9124216425
 C         -1.5175880375       -5.9577137135        0.9024044849
 C         -0.5343041508       -5.0002651056        0.7063890432
 C         -0.8830411558       -3.6769103722        0.5187614202
 N         -1.6135680134       -1.0488675539        0.0616706797
 C          0.3627625896        0.8075750978       -0.3302905136
 C          0.8515746686       -0.3650370725       -0.8781077625
 C          2.2058688551       -0.6345937342       -0.7626112121
 C          3.0252247558       -1.7516887820       -1.1364627365
 C          2.7580558718       -2.9671390028       -1.7523421672
 C          3.8064592911       -3.8363195817       -1.9780712572
 C          5.1079857060       -3.4988409487       -1.6126530865
 C          5.3970307520       -2.2972031379       -0.9943461787
 C          4.3440359814       -1.4304976120       -0.7391449083
 N          4.3529894557       -0.1791564239       -0.1536555049
 C          5.4770009177        0.4841406977        0.3570787603
 C          5.7422928004        1.7981984759       -0.0186602229
 C          6.8472679976        2.4530974467        0.4923226738
 C          7.7003686568        1.8044385424        1.3697014603
 C          7.4410215131        0.4954251811        1.7403954731
 C          6.3321867703       -0.1641791269        1.2435408925
 C          3.0615756073        0.3101185606       -0.1579015059
 C          2.5661785895        1.4910829713        0.3746315676
 C          1.2069086168        1.7406839899        0.2992765102
 H          2.2846255649        3.6913112470        1.9865224307
 H          1.0610636943        4.9095854761        1.7101263954
 H          2.1008718791        4.3960555535        0.3714472287
 H         -0.6685689326        3.3940146956        2.6506110066
 H         -0.8885068369        1.7611887698        2.0233597331
 H          0.5736262603        2.1621107780        2.9236161091
 H         -0.1420907648        5.5569496746        0.0795560419
 H         -1.9425657917        6.1896208524       -1.4337513696
 H         -3.3462749443        4.4551748157       -2.4963214414
 H         -2.9098257628        2.0737405036       -2.0262194683
 H         -5.0852316967        2.1855456833       -0.2158598254
 H         -7.4532447710        2.9206154560       -0.1587988863
 H         -9.2405367541        1.2685302668        0.2333404504
 H         -8.6750000200       -1.1074383280        0.5661237935
 H         -6.3028277330       -1.8295667131        0.5046367184
 H         -4.2441606399       -3.9613719546        0.7227147591
 H         -3.6182607594       -6.3364337447        1.0672848996
 H         -1.2424459298       -6.9923845282        1.0480735179
 H          0.5073049444       -5.2875429415        0.6998586206
 H         -0.1297177998       -2.9184043827        0.3726963645
 H          0.1909478512       -1.0572740218       -1.3704924421
 H          1.7506522586       -3.2204129271       -2.0464369041
 H          3.6219580137       -4.7887112960       -2.4524572714
 H          5.9104533968       -4.1920473922       -1.8180776429
 H          6.4115838017       -2.0405010928       -0.7290024408
 H          5.0881703791        2.2923656824       -0.7215496345
 H          7.0480792297        3.4723785481        0.1969159640
 H          8.5650461398        2.3174075035        1.7629061695
 H          8.1014725016       -0.0129031657        2.4273651468
 H          6.1141124390       -1.1767171061        1.5485075127
 H          3.2360457564        2.1818351264        0.8584510335
