  45
  -72.1021447465000       0.346293781072182      !
 O          2.1898355537       -3.7567551275        0.0275105614
 C          2.0065387218       -2.5180854120        0.0454292683
 C          2.0973635585       -1.7047032024       -1.1502702738
 C          2.5577310892       -2.3369015748       -2.3234020438
 C          2.7164282568       -1.6116176350       -3.4784744197
 C          2.4014979741       -0.2591285442       -3.5055630826
 C          1.9251032535        0.3602689187       -2.3609145214
 C          1.7595070344       -0.3441287708       -1.1782840776
 C          1.1267065701        0.3475297809        0.0165633842
 C          1.6642237506        1.7633115570        0.0710807291
 C          2.9681953009        1.9630816450        0.5189671055
 C          3.5220991945        3.2284113418        0.5359140800
 C          2.7867428546        4.3160816192        0.0919394442
 C          1.4998035854        4.1242656530       -0.3804402644
 C          0.9432298888        2.8571220707       -0.3968140731
 C         -0.3950763565        0.2794492172       -0.0709665298
 C         -1.0325354287       -0.5976707470       -0.9424347163
 C         -2.4118446670       -0.6999122173       -0.9690362951
 C         -3.1667051273        0.0816441891       -0.1134984318
 Br        -5.0667862741       -0.0433596202       -0.1504701277
 C         -2.5575022779        0.9572769985        0.7702204029
 C         -1.1799631206        1.0452130687        0.7891858983
 C          1.4628620333       -0.4150428698        1.2914180959
 C          1.3827131521        0.2285891816        2.5166894194
 C          1.5314647943       -0.4693033287        3.7041654032
 C          1.7550491421       -1.8402695405        3.6758609691
 C          1.8639798253       -2.4995361152        2.4777852107
 C          1.7507574313       -1.7850644529        1.2665223793
 H          2.7972663780       -3.3873878474       -2.2738536428
 H          3.0958046870       -2.1014288311       -4.3633470405
 H          2.5149785358        0.3133219027       -4.4131772772
 H          1.6546412085        1.4052907366       -2.3936546305
 H          3.5469611851        1.1163652117        0.8586872832
 H          4.5318811580        3.3667843675        0.8922094091
 H          3.2178365410        5.3057432929        0.1061163513
 H          0.9252232963        4.9636792380       -0.7435225910
 H         -0.0557311593        2.7209840035       -0.7854718382
 H         -0.4564606477       -1.2097515148       -1.6184159322
 H         -2.8935038039       -1.3822861431       -1.6521853427
 H         -3.1536786617        1.5609899988        1.4370312309
 H         -0.7147333313        1.7252164803        1.4852239779
 H          1.2009099484        1.2927006897        2.5464303444
 H          1.4617015280        0.0566613393        4.6438040129
 H          1.8608532370       -2.3941294787        4.5972329572
 H          2.0610474089       -3.5586616905        2.4245008987
  45
  -72.1020143477000       0.301659879398264      !
 O          1.7618008772       -3.7986963970        0.1108649934
 C          1.7763437837       -2.5473127169        0.1168795267
 C          1.9588134158       -1.7640011866       -1.0884092325
 C          2.3416139267       -2.4468102197       -2.2592905407
 C          2.6575371749       -1.7376388056       -3.3926839888
 C          2.5698741246       -0.3503571762       -3.4024968841
 C          2.1427534593        0.3222509680       -2.2680586054
 C          1.8129519881       -0.3679710416       -1.1115335905
 C          1.1686325177        0.3530299030        0.0562837586
 C          1.6356397137        1.7932097612        0.0905366868
 C          2.9924691848        2.0390565544        0.3009500077
 C          3.4782394846        3.3311852035        0.3273354060
 C          2.6168098810        4.4011888490        0.1389366584
 C          1.2707349669        4.1660009516       -0.0812922871
 C          0.7816143486        2.8708195126       -0.1076944865
 C         -0.3542172771        0.2480856607       -0.0545616211
 C         -0.9772816868       -0.1431850114       -1.2333938581
 C         -2.3554755697       -0.2376027472       -1.3132789083
 C         -3.1213108350        0.0649548537       -0.2026931128
 Br        -5.0198275881       -0.0569579800       -0.3050453193
 C         -2.5257892167        0.4616094393        0.9825727657
 C         -1.1489727269        0.5484154790        1.0485212785
 C          1.5646946268       -0.3723716620        1.3324929325
 C          1.6741290126        0.3138651068        2.5320650538
 C          1.8428613291       -0.3659041900        3.7285915841
 C          1.8917529997       -1.7547817380        3.7345808804
 C          1.8071138644       -2.4586612145        2.5584515488
 C          1.6908695392       -1.7690449793        1.3354994130
 H          2.4145444569       -3.5221883034       -2.2224310940
 H          2.9890600247       -2.2674496313       -4.2737066864
 H          2.8105750226        0.2078563481       -4.2940915207
 H          2.0222368627        1.3955654107       -2.2938272442
 H          3.6635433437        1.2044655465        0.4455039378
 H          4.5305540721        3.5062667713        0.4942284189
 H          2.9944136359        5.4124237872        0.1600609671
 H          0.5946406965        4.9937189383       -0.2363804539
 H         -0.2694928237        2.7027981526       -0.2891372735
 H         -0.3908564354       -0.3742041232       -2.1091241033
 H         -2.8272816119       -0.5431652728       -2.2343702446
 H         -3.1304487200        0.6974361288        1.8447152647
 H         -0.6888678627        0.8526786356        1.9759906003
 H          1.6018855521        1.3923456735        2.5354276457
 H          1.9166509853        0.1894954746        4.6509174953
 H          2.0176969282       -2.2901511041        4.6642829882
 H          1.8674621798       -3.5351736078        2.5329276560
  45
  -72.1015250351000       0.179740130152060      !
 O          2.6550147700       -3.6537907289        0.2397271137
 C          2.2575339698       -2.4663092643        0.2020538648
 C          2.0188141288       -1.7660971521       -1.0406121291
 C          2.3353241999       -2.4579908796       -2.2303551985
 C          2.2062860434       -1.8340461258       -3.4444411733
 C          1.7703602035       -0.5165569815       -3.5126563535
 C          1.4409880141        0.1581019371       -2.3490192461
 C          1.5432897191       -0.4522365663       -1.1080373467
 C          1.0708933349        0.3130067347        0.1212934636
 C          1.6792225026        1.7028113144        0.1502019558
 C          0.9959962233        2.8085407413        0.6480739721
 C          1.6141386880        4.0446179315        0.7191700310
 C          2.9263253734        4.1944989243        0.3053042744
 C          3.6224438950        3.0947127864       -0.1695187166
 C          3.0066289169        1.8598901205       -0.2397902690
 C         -0.4477847422        0.2938351218        0.0127344012
 C         -1.1345346131        1.2251796229       -0.7633268480
 C         -2.5056625282        1.1552244487       -0.9159577357
 C         -3.2052952035        0.1338646777       -0.2959293036
 Br        -5.0964487449        0.0345071560       -0.4975686015
 C         -2.5466028743       -0.8157756048        0.4652296358
 C         -1.1749454468       -0.7318092150        0.6116327913
 C          1.5160879545       -0.3875259187        1.3961881863
 C          1.3443260292        0.2668919765        2.6065935704
 C          1.6768764521       -0.3380864573        3.8078233371
 C          2.1954110136       -1.6263433606        3.8097288866
 C          2.3707655193       -2.3024767762        2.6286183061
 C          2.0389650893       -1.6866856968        1.4029832789
 H          2.6882285910       -3.4736731017       -2.1444242381
 H          2.4561195897       -2.3729689612       -4.3467116290
 H          1.6802853973       -0.0154077051       -4.4639829332
 H          1.1036035222        1.1816130252       -2.4071250727
 H         -0.0252517741        2.7093672857        0.9872827872
 H          1.0676061370        4.8923888491        1.1054010823
 H          3.4059090761        5.1602372717        0.3592319942
 H          4.6502931808        3.1986259898       -0.4834674691
 H          3.5579680513        1.0053267538       -0.6041955318
 H         -0.6020649613        2.0229179241       -1.2573560641
 H         -3.0268845069        1.8874123023       -1.5133216164
 H         -3.0978782586       -1.6133589708        0.9387290806
 H         -0.6692614074       -1.4772540769        1.2056322955
 H          0.9302880156        1.2636615365        2.6116704962
 H          1.5275435595        0.1964193362        4.7332322258
 H          2.4674691900       -2.1043343457        4.7394784630
 H          2.7683435590       -3.3048217543        2.5994858538
  45
  -72.1014851191000       0.172306209377494      !
 O          2.4978698239       -3.6959583475        0.0417448674
 C          2.1736579067       -2.4859863706        0.0485267929
 C          2.1625164973       -1.6815493586       -1.1555249350
 C          2.6346832202       -2.2949288751       -2.3351448573
 C          2.6769331190       -1.5876471666       -3.5104625620
 C          2.2391444685       -0.2704320674       -3.5503643555
 C          1.7612967202        0.3306602125       -2.3969013809
 C          1.7104955736       -0.3557600098       -1.1933826850
 C          1.0957060131        0.3301598375        0.0165626598
 C          1.6767350037        1.7295262371        0.0804022410
 C          2.9514251481        1.9009596306        0.6141358398
 C          3.5453531079        3.1480810766        0.6380420790
 C          2.8816424130        4.2457316313        0.1142065307
 C          1.6257051528        4.0817203833       -0.4437530788
 C          1.0288722729        2.8332857047       -0.4662565608
 C         -0.4252900202        0.2910445663       -0.0692886106
 C         -1.0641615434       -0.6954276790       -0.8155256758
 C         -2.4430167826       -0.7904044366       -0.8423593461
 C         -3.1982953300        0.1083502522       -0.1102067000
 Br        -5.0989642010       -0.0065917334       -0.1474419164
 C         -2.5889335741        1.0910191354        0.6516902857
 C         -1.2103655432        1.1718931066        0.6719737170
 C          1.4149407914       -0.4449170471        1.2882063760
 C          1.2169095184        0.1706721676        2.5149597091
 C          1.3884454268       -0.5206929826        3.7025302732
 C          1.7566359821       -1.8601380833        3.6730123735
 C          1.9769402800       -2.4908076254        2.4754720954
 C          1.8286375106       -1.7812059536        1.2640530236
 H          2.9673789925       -3.3192128531       -2.2745464581
 H          3.0594257979       -2.0634016360       -4.4016614196
 H          2.2622713793        0.2893434830       -4.4725371382
 H          1.4046925117        1.3487073749       -2.4378760989
 H          3.4769407592        1.0476216796        1.0174216115
 H          4.5308767336        3.2634117287        1.0636996902
 H          3.3442470586        5.2209789636        0.1330608143
 H          1.1071595647        4.9283935373       -0.8690282662
 H          0.0529938544        2.7213361534       -0.9167652085
 H         -0.4848531228       -1.4011669749       -1.3901700443
 H         -2.9251037450       -1.5577833071       -1.4280092365
 H         -3.1856103258        1.7841337879        1.2245390603
 H         -0.7482658918        1.9386362653        1.2738102630
 H          0.9290636619        1.2106310257        2.5436764847
 H          1.2281771709       -0.0151756416        4.6422535640
 H          1.8825502164       -2.4109939208        4.5936557498
 H          2.2819043897       -3.5240321300        2.4214506254
