  45
        -72.38537898
 O          1.7083798869       -3.8223149270        0.1329453076
 C          1.7417956374       -2.5716142510        0.1039626909
 C          1.8791454910       -1.8238029213       -1.1295308625
 C          2.1963962301       -2.5437125704       -2.2977814822
 C          2.4693085002       -1.8702393105       -3.4636566739
 C          2.4019204251       -0.4824802400       -3.5074177543
 C          2.0385418106        0.2269757458       -2.3732166375
 C          1.7531351437       -0.4267159145       -1.1841179070
 C          1.1751065335        0.3355048496       -0.0078144872
 C          1.6645705147        1.7683631943       -0.0348141747
 C          3.0332831627        1.9978150068        0.1054647547
 C          3.5389168545        3.2821814203        0.0737960813
 C          2.6856034846        4.3605342179       -0.1036141446
 C          1.3273303564        4.1413005651       -0.2544866890
 C          0.8183042224        2.8539364557       -0.2225953114
 C         -0.3526587329        0.2522236899       -0.0448148782
 C         -1.0360917784       -0.1602721887       -1.1822303094
 C         -2.4177673823       -0.2345394917       -1.1953300079
 C         -3.1260718997        0.1098743995       -0.0590512803
 Br        -5.0289027473        0.0159209728       -0.0696387352
 C         -2.4697663719        0.5283677163        1.0859214088
 C         -1.0902335178        0.5946772182        1.0853776390
 C          1.6197757352       -0.3618660330        1.2680090247
 C          1.7955604036        0.3542934239        2.4419278653
 C          2.0101155110       -0.2959265649        3.6475035375
 C          2.0385760731       -1.6847572757        3.6892930526
 C          1.8883940861       -2.4183251239        2.5381137060
 C          1.7251700210       -1.7598153019        1.3034404941
 H          2.2549765988       -3.6187601554       -2.2348804942
 H          2.7512176680       -2.4286601279       -4.3442821996
 H          2.6088008256        0.0477770557       -4.4242099648
 H          1.9329226847        1.3010245565       -2.4227738584
 H          3.6979153937        1.1566612330        0.2414899077
 H          4.6003895722        3.4446539895        0.1867171063
 H          3.0787779457        5.3657484124       -0.1278050253
 H          0.6570876762        4.9753844519       -0.4006088535
 H         -0.2425401656        2.6981127743       -0.3502946247
 H         -0.4948977234       -0.4240182225       -2.0776156411
 H         -2.9367588395       -0.5569291282       -2.0847632195
 H         -3.0297385675        0.7968504742        1.9684547963
 H         -0.5826491548        0.9161271741        1.9817592194
 H          1.7395994405        1.4335046150        2.4190732623
 H          2.1353459502        0.2826335485        4.5498251650
 H          2.2000237151       -2.1970800315        4.6264634177
 H          1.9314638791       -3.4959687637        2.5393384233
