  45
        -72.38537898
 O          1.7083798869       -3.8223149270        0.1329453076
 C          1.7417956374       -2.5716142510        0.1039626909
 C          1.8791454910       -1.8238029213       -1.1295308625
 C          2.1963962301       -2.5437125704       -2.2977814822
 C          2.4693085002       -1.8702393105       -3.4636566739
 C          2.4019204251       -0.4824802400       -3.5074177543
 C          2.0385418106        0.2269757458       -2.3732166375
 C          1.7531351437       -0.4267159145       -1.1841179070
 C          1.1751065335        0.3355048496       -0.0078144872
 C          1.6645705147        1.7683631943       -0.0348141747
 C          3.0332831627        1.9978150068        0.1054647547
 C          3.5389168545        3.2821814203        0.0737960813
 C          2.6856034846        4.3605342179       -0.1036141446
 C          1.3273303564        4.1413005651       -0.2544866890
 C          0.8183042224        2.8539364557       -0.2225953114
 C         -0.3526587329        0.2522236899       -0.0448148782
 C         -1.0360917784       -0.1602721887       -1.1822303094
 C         -2.4177673823       -0.2345394917       -1.1953300079
 C         -3.1260718997        0.1098743995       -0.0590512803
 Br        -5.0289027473        0.0159209728       -0.0696387352
 C         -2.4697663719        0.5283677163        1.0859214088
 C         -1.0902335178        0.5946772182        1.0853776390
 C          1.6197757352       -0.3618660330        1.2680090247
 C          1.7955604036        0.3542934239        2.4419278653
 C          2.0101155110       -0.2959265649        3.6475035375
 C          2.0385760731       -1.6847572757        3.6892930526
 C          1.8883940861       -2.4183251239        2.5381137060
 C          1.7251700210       -1.7598153019        1.3034404941
 H          2.2549765988       -3.6187601554       -2.2348804942
 H          2.7512176680       -2.4286601279       -4.3442821996
 H          2.6088008256        0.0477770557       -4.4242099648
 H          1.9329226847        1.3010245565       -2.4227738584
 H          3.6979153937        1.1566612330        0.2414899077
 H          4.6003895722        3.4446539895        0.1867171063
 H          3.0787779457        5.3657484124       -0.1278050253
 H          0.6570876762        4.9753844519       -0.4006088535
 H         -0.2425401656        2.6981127743       -0.3502946247
 H         -0.4948977234       -0.4240182225       -2.0776156411
 H         -2.9367588395       -0.5569291282       -2.0847632195
 H         -3.0297385675        0.7968504742        1.9684547963
 H         -0.5826491548        0.9161271741        1.9817592194
 H          1.7395994405        1.4335046150        2.4190732623
 H          2.1353459502        0.2826335485        4.5498251650
 H          2.2000237151       -2.1970800315        4.6264634177
 H          1.9314638791       -3.4959687637        2.5393384233
  45
        -72.38509876
 O          2.1326089260       -3.7895254858        0.0286606460
 C          1.9687941155       -2.5480226865        0.0211121428
 C          2.0155072695       -1.7684206491       -1.1993696102
 C          2.4108780388       -2.4390558749       -2.3748616535
 C          2.5259772786       -1.7475198186       -3.5555156357
 C          2.2302695078       -0.3913305985       -3.6050063708
 C          1.8173643172        0.2660081905       -2.4568598228
 C          1.6969778670       -0.4038048065       -1.2489398623
 C          1.1312861067        0.3296235475       -0.0453767695
 C          1.6917625368        1.7374989655       -0.0547510097
 C          3.0181372995        1.9280886415        0.3263758228
 C          3.5909807064        3.1843178582        0.2828493821
 C          2.8518600757        4.2714719706       -0.1561103945
 C          1.5414661181        4.0879038879       -0.5627048746
 C          0.9659560610        2.8299200458       -0.5184322339
 C         -0.3937715601        0.2837933163       -0.0601560713
 C         -1.0843863722       -0.6058781716       -0.8766645680
 C         -2.4647925034       -0.6865250153       -0.8362920956
 C         -3.1669784023        0.1296690784        0.0316663891
 Br        -5.0683503566        0.0343967400        0.0865216169
 C         -2.5040329413        1.0186370745        0.8617622420
 C         -1.1259657199        1.0848101955        0.8142393655
 C          1.5155049732       -0.4039699037        1.2328988620
 C          1.5025082656        0.2733505062        2.4424624299
 C          1.6964128061       -0.3949030939        3.6404266924
 C          1.8980117884       -1.7695652944        3.6393589074
 C          1.9407988230       -2.4622510315        2.4560417173
 C          1.7815110402       -1.7786345919        1.2322187403
 H          2.6368267237       -3.4915731812       -2.3077191242
 H          2.8560962173       -2.2668353549       -4.4433072209
 H          2.3095438818        0.1547817395       -4.5322699612
 H          1.5612336646        1.3140113945       -2.5056307735
 H          3.5995491177        1.0815146465        0.6619070956
 H          4.6183123702        3.3158420601        0.5878807024
 H          3.2978129094        5.2540748846       -0.1891340707
 H          0.9630301829        4.9264874065       -0.9215586089
 H         -0.0520528637        2.6995912124       -0.8563432157
 H         -0.5498253869       -1.2450011796       -1.5616623472
 H         -2.9880652022       -1.3790319027       -1.4773398425
 H         -3.0592258326        1.6494759223        1.5387670789
 H         -0.6185330148        1.7755568777        1.4689862446
 H          1.3381442068        1.3406715287        2.4514357447
 H          1.6786388128        0.1570147148        4.5675174537
 H          2.0386782335       -2.3002670418        4.5696547123
 H          2.1193783576       -3.5254633219        2.4227129009
  45
        -72.38491420
 O          2.4429928223       -3.7325691376        0.0303001764
 C          2.1371108525       -2.5178767543        0.0180453318
 C          2.0816836535       -1.7466247080       -1.2063245908
 C          2.4894694668       -2.3994735870       -2.3887703942
 C          2.4872914377       -1.7253881804       -3.5841817447
 C          2.0673582963       -0.4029835049       -3.6408271698
 C          1.6525022210        0.2369583531       -2.4838932527
 C          1.6477551880       -0.4153684719       -1.2605135453
 C          1.0999839398        0.3130757990       -0.0432479284
 C          1.7036804561        1.7042772844       -0.0455811283
 C          3.0041848604        1.8700250609        0.4237928122
 C          3.6166889223        3.1077601632        0.3852646193
 C          2.9453880370        4.2010451999       -0.1380280887
 C          1.6625952214        4.0417553825       -0.6326656967
 C          1.0472358249        2.8027921600       -0.5925659909
 C         -0.4237675656        0.2957451236       -0.0577522696
 C         -1.1109711585       -0.7005313209       -0.7457483011
 C         -2.4908189434       -0.7743336238       -0.7063057919
 C         -3.1980408462        0.1559875729        0.0343647308
 Br        -5.0998565655        0.0702185502        0.0880389625
 C         -2.5396387527        1.1493590953        0.7394651506
 C         -1.1605880620        1.2088909209        0.6938911798
 C          1.4667106679       -0.4318653432        1.2335868154
 C          1.3349594233        0.2201359727        2.4503966199
 C          1.5514710048       -0.4410949663        3.6477397469
 C          1.8983351282       -1.7865153099        3.6388996066
 C          2.0534723553       -2.4531428787        2.4506568293
 C          1.8593224150       -1.7747057166        1.2279167796
 H          2.8096655325       -3.4268609812       -2.3148384502
 H          2.8209339990       -2.2313640543       -4.4783570210
 H          2.0557086628        0.1309021992       -4.5784392980
 H          1.3092482884        1.2590282833       -2.5369527410
 H          3.5354058802        1.0198215512        0.8262228682
 H          4.6225249617        3.2190595385        0.7616270630
 H          3.4225287926        5.1689860652       -0.1679125634
 H          1.1372157583        4.8845849970       -1.0571873127
 H          0.0499265713        2.6940390127       -0.9942828528
 H         -0.5693697671       -1.4308322129       -1.3264469237
 H         -3.0107608660       -1.5497163065       -1.2473289493
 H         -3.0988552993        1.8672678817        1.3195260221
 H         -0.6598658480        1.9843981887        1.2520167297
 H          1.0639437721        1.2649241786        2.4631417538
 H          1.4424798747        0.0924338436        4.5792876533
 H          2.0589074723       -2.3138906454        4.5678627664
 H          2.3405067007       -3.4921641838        2.4116655916
  45
        -72.38480796
 O          2.5989059307       -3.6881790155        0.3158840313
 C          2.2207173974       -2.4963972335        0.2374486676
 C          1.9505671312       -1.8487641148       -1.0271038676
 C          2.2132693144       -2.5995497827       -2.1940197044
 C          2.0524151860       -2.0288494348       -3.4303003029
 C          1.6369632628       -0.7078786777       -3.5438707760
 C          1.3601982554        0.0247524864       -2.4017872758
 C          1.4955124486       -0.5306419696       -1.1383626166
 C          1.0796859022        0.2981084201        0.0700541036
 C          1.7123372085        1.6761892578        0.0143551239
 C          1.0660078213        2.8158763358        0.4841252234
 C          1.7073153709        4.0421385515        0.4772563298
 C          3.0065489586        4.1486052661        0.0122402042
 C          3.6666709106        3.0156558836       -0.4352328377
 C          3.0277394534        1.7906404907       -0.4276780477
 C         -0.4419711341        0.3024256056        0.0145838553
 C         -1.1394897582        1.2103879190       -0.7793753589
 C         -2.5161235459        1.1592323212       -0.8815721937
 C         -3.2109441617        0.1802095133       -0.1917638346
 Br        -5.1094294069        0.1071866840       -0.3237239825
 C         -2.5422973678       -0.7461763954        0.5891175872
 C         -1.1651132696       -0.6813179142        0.6844363889
 C          1.5572786633       -0.3522451323        1.3597231360
 C          1.4392981373        0.3593395427        2.5440262983
 C          1.8033829526       -0.1968011297        3.7596296222
 C          2.2995547286       -1.4931170564        3.8028286762
 C          2.4217812419       -2.2251334834        2.6486447949
 C          2.0577747294       -1.6593108776        1.4081547964
 H          2.5515466171       -3.6167227581       -2.0737549131
 H          2.2611917275       -2.6126004930       -4.3149435397
 H          1.5221592647       -0.2486712192       -4.5135278707
 H          1.0385389551        1.0507133825       -2.4951632046
 H          0.0557398755        2.7512440003        0.8623140726
 H          1.1892473882        4.9165730649        0.8427117033
 H          3.5041771486        5.1066649203        0.0053724583
 H          4.6845022302        3.0860413533       -0.7886465017
 H          3.5512597593        0.9103189450       -0.7711966787
 H         -0.6111100378        1.9748788842       -1.3274115155
 H         -3.0453786420        1.8732655098       -1.4936674959
 H         -3.0901859656       -1.5110897125        1.1172948311
 H         -0.6517290392       -1.4084540701        1.2943129695
 H          1.0428025682        1.3628806532        2.5175818120
 H          1.6957665814        0.3817068425        4.6641325852
 H          2.5958427194       -1.9335700412        4.7436474168
 H          2.8008902195       -3.2350237182        2.6518927417
