84
 energy: -122.737344102747 gnorm: 0.000069108626 xtb: 6.7.1 (edcfbbe)
C           -1.08791097606527        0.33375111534077       -2.34096913551125
C           -1.77840285709660       -0.18292293771034       -1.11505286814365
C           -3.15969513158095       -0.19484038259699       -1.03710184091579
C           -3.81737717218963       -0.66875886889929        0.09688290827627
N           -5.21221891339199       -0.60995239620922        0.17471401442428
C           -5.94244173119409       -1.63399766077570        0.78232675384456
C           -7.14512447394299       -1.34045622535845        1.42638670236186
C           -7.87587391265043       -2.34463821240201        2.02952707468990
C           -7.42140232606564       -3.65332399966118        2.00893816478755
C           -6.22846636957787       -3.95044403820285        1.37084756108978
C           -5.49400879969148       -2.95453623585927        0.75716251876822
C           -5.90082742006717        0.40654799562812       -0.50763395426594
C           -6.94998612939599        0.07711897706762       -1.33769268394013
C           -7.63836729451616        1.05951237844285       -2.05514490207458
C           -7.26789068858675        2.37187563967530       -1.95965057297040
C           -6.21348134248515        2.75669350171942       -1.10594298739934
C           -5.83548270222257        4.10985203368148       -0.97507307894354
C           -4.84475562666882        4.48417218709040       -0.11264500985046
C           -4.20028119892551        3.51883514369882        0.67366349617682
C           -4.53225250410545        2.19723432837878        0.56088713616880
C           -5.52655880490420        1.77249793575890       -0.34502417059612
C           -3.06298037337498       -1.16538284703798        1.15862167515734
C           -1.68525938259298       -1.16279231414209        1.08037748708447
C           -1.03016693756032       -0.66710816221658       -0.03935858660157
C            0.44957199237454       -0.64036986758324       -0.07797308715056
C            1.15416890631505       -1.68259344197246       -0.66446307491695
C            2.53437393521539       -1.67879145871789       -0.70324807616944
C            3.23909019521405       -0.60719490746448       -0.16062758168937
N            4.63812682905153       -0.56472998142453       -0.18339820680614
C            5.35784838252053       -1.14503780604878       -1.22836631068491
C            4.87884470178667       -1.08822479887474       -2.53850707162088
C            5.60447593632260       -1.65038402192509       -3.56974809095477
C            6.81932403695636       -2.26812958392511       -3.32017820200155
C            7.30200083804881       -2.32244763510564       -2.02314256170586
C            6.57965601470886       -1.77283924485451       -0.98252831183590
C            5.31138855281408       -0.10050977035111        0.95951979092354
C            4.90666020551728       -0.52536430469741        2.20584925856778
C            5.56921130908911       -0.10245030311399        3.36174986721986
C            6.64749633186058        0.73316858693431        3.27370395521938
C            7.08048185334620        1.21210288343192        2.01995741356707
C            8.17280886564513        2.09857831640000        1.91176387317109
C            8.55725070808625        2.59717829305254        0.69963733613599
C            7.85163624224616        2.24314112353679       -0.45904022230190
C            6.79904530108038        1.37311022356190       -0.39180255490779
C            6.39674054151351        0.81490431947581        0.83931279347709
C            2.53083945687749        0.44003365261111        0.42731333922496
C            1.14852128808732        0.43331406656883        0.48103385024856
C            0.40277084516702        1.56139277230455        1.12843641957004
H           -0.57847214077287       -0.47921668006920       -2.85786746722403
H           -1.80137808710420        0.78776668405606       -3.02416173312070
H           -0.33375129418398        1.07258721091855       -2.07403530319883
H           -3.74464844644004        0.17800407524034       -1.86598212693094
H           -7.49740156339573       -0.31937683345568        1.44925079427770
H           -8.80392689058784       -2.10228732152398        2.52637272682719
H           -7.99342523749808       -4.43542004275719        2.48464118923941
H           -5.87031948429590       -4.96923408230211        1.34135921259907
H           -4.57215429695051       -3.19400488422642        0.24770940118860
H           -7.23516054066026       -0.96004238107294       -1.44080993304768
H           -8.45210951539891        0.76461048086665       -2.70115435493677
H           -7.78160869764463        3.13375371654926       -2.52741406724101
H           -6.35369790028559        4.84773329826783       -1.57110495128463
H           -4.56200391420673        5.52268049896837       -0.02035534574382
H           -3.43896134388397        3.82617488067872        1.37570031078616
H           -4.03586214612809        1.46940038792122        1.18354820701488
H           -3.55966581262810       -1.53345837259332        2.04423932686048
H           -1.10116609325829       -1.54101970604860        1.90736308480712
H            0.60910287053269       -2.51671476091804       -1.08307021202264
H            3.06940555223253       -2.50596152377543       -1.14545552848111
H            3.94030906991011       -0.59235104737776       -2.73968389591613
H            5.22239488495991       -1.59676207761425       -4.57887100162350
H            7.38504142687031       -2.70253083201281       -4.13034346943835
H            8.24616826767173       -2.80510531952115       -1.81727902138901
H            6.95610708673673       -1.82561747445503        0.02853486417685
H            4.07013603510435       -1.20466764433181        2.28531069536466
H            5.23023880289599       -0.46126152192897        4.32242179626713
H            7.17707799650203        1.04712250265978        4.16124027813602
H            8.69731509262092        2.38021304091658        2.81390022864277
H            9.39527721793767        3.27493786962473        0.62709824423892
H            8.14360645538040        2.66519110145012       -1.40943281231937
H            6.25899906500360        1.11856131452708       -1.29065692385877
H            3.07975222174626        1.27032816314334        0.84926636196181
H           -0.37476608584770        1.94078228005130        0.46672515662420
H           -0.08635765967308        1.21428618736654        2.03833201332888
H            1.07783150392252        2.37375027259491        1.38608724944133
