66
 energy: -110.098344141629 gnorm: 0.000062723604 xtb: 6.7.1 (edcfbbe)
C           -7.31763121005822       -0.03055748975594       -0.05163925942496
C           -6.26633238129411       -1.15683572488337        0.01055203504969
C           -6.96483036744014       -2.52975612197232        0.08273872796060
C           -5.43188100614146       -0.97446979431313        1.25926361554111
C           -6.04288649829753       -0.98884352939652        2.50609131056625
C           -5.32184166341862       -0.83485273708181        3.67616127813963
C           -3.94609195549408       -0.66185300318363        3.61671386156850
C           -3.31125495375851       -0.64310047206650        2.39584517036606
C           -4.03948492543691       -0.79534026658690        1.20600284932064
N           -3.37763023806326       -0.77061895322972       -0.00355457371848
C           -1.96066960945250       -0.60937413455354       -0.00871325686443
C           -1.13740344103751       -1.74241786525174        0.00409942427675
C            0.22244416321039       -1.57746253838072        0.00417118422406
C            0.79614812673034       -0.29567616901206       -0.00779657778553
C           -0.02969801443447        0.85263889247356       -0.02302731676596
C           -1.41777554957099        0.65784775690294       -0.02315511228999
C            0.57552317039700        2.16611204711496       -0.03548139184835
C           -0.17658005575842        3.34363538713458       -0.05272749098070
C            0.43579849014026        4.58821185039532       -0.06307216311765
C           -0.35765426024120        5.75405359615343       -0.08082996568652
N           -1.00768981793963        6.70112256327895       -0.09519299167697
C            1.83952409453810        4.69488498386383       -0.05600028445765
C            2.59229264938388        3.55375663296916       -0.03948422361182
C            1.98905612096803        2.28233505785577       -0.02951033296688
C            2.81783773875881        1.11874259158983       -0.01279602586554
N            4.14638381345790        1.23613441494418       -0.00601275739421
C            4.92328083289832        0.15654039067434        0.01036621368459
C            6.31833721547466        0.26239093362683        0.02013837905733
C            7.11400911783452       -0.87692507618281        0.03778050741406
C            8.51749880516122       -0.75730884698314        0.04842726350744
N            9.66092106776239       -0.64713308862799        0.05696867857220
C            6.52101261821481       -2.15950866703893        0.04531095944130
C            7.33722223134902       -3.30635765923659        0.06279455910525
N            7.99210353701302       -4.25049646605128        0.07727151136723
C            5.13524492453153       -2.28685716775644        0.03572385739803
C            4.31745060126293       -1.15501796101390        0.01903759234563
N            2.98755336623596       -1.25869734615599        0.01239720492031
C            2.22372469415251       -0.17120169239774       -0.00282300080475
C           -4.03504607328465       -0.91660682633369       -1.20678110925809
C           -3.30379527701620       -0.87173871842250       -2.40356569156419
C           -3.93353335972430       -1.01575524743074       -3.61873685114516
C           -5.30724958417495       -1.20801655555099       -3.66517103171103
C           -6.03210718043413       -1.25004572836821       -2.48808852837423
C           -5.42648443824369       -1.10609027957668       -1.24691760716638
H           -7.95384701375105       -0.04892937868411        0.82786233994552
H           -6.82394155227560        0.93812509316232       -0.09998834342481
H           -7.94739453752834       -0.13983980502560       -0.92918012416993
H           -7.59459626331898       -2.59457830474960        0.96475564444140
H           -6.22229979991387       -3.32405170552604        0.13036344095687
H           -7.58632670904404       -2.69129466883981       -0.79267208699875
H           -7.11061265709686       -1.12497721460841        2.57242301087501
H           -5.82815440888245       -0.85063127173000        4.62894136915540
H           -3.37026291380440       -0.54289084290878        4.52168618932155
H           -2.24182807550810       -0.51091701998383        2.35202453159778
H           -1.58018404185434       -2.72618107716325        0.01492942556492
H            0.88910139779497       -2.42550263575473        0.01513706040353
H           -2.09169660206315        1.49916649089027       -0.03307791997524
H           -1.25433858636484        3.31171402604384       -0.05862440585416
H            2.30230682134608        5.67014910979957       -0.06388781683589
H            3.67039030326605        3.59749581539201       -0.03386956664465
H            6.76860754569174        1.24296354000067        0.01398571302160
H            4.67771544744898       -3.26408474263274        0.04157898648344
H           -2.23631935332012       -0.72228429149066       -2.36941805743734
H           -3.35545425566603       -0.97874092101959       -4.52932550655670
H           -5.80930150778682       -1.32287567255741       -4.61339440078351
H           -7.09867104198966       -1.39936233604184       -2.54427376990867
