66
 energy: -110.135819556790 gnorm: 0.000096233936 xtb: 6.7.1 (edcfbbe)
C           -6.72705310997184        1.30659213398616        2.03079300373576
C           -5.37580317713997        1.12793189338077        1.33824068530560
C           -4.29210241286739        1.01138629465628        2.43020975843828
C           -5.03643803993349        2.29088037985407        0.42025288025176
C           -5.70247353506469        3.50719529231544        0.41438264727095
C           -5.34490950403502        4.50991112726020       -0.47202320860998
C           -4.33157080888964        4.30106648080195       -1.39087959493535
C           -3.65859202433606        3.09313596535031       -1.40745276786680
C           -3.98744047435300        2.10713111693330       -0.48594125897288
N           -3.34762754384555        0.84605903211007       -0.50486071892182
C           -1.99443197733727        0.68158981162565       -0.39304479490736
C           -1.12751963950095        1.79130207640266       -0.31009364488037
C            0.22304777239744        1.60735021512698       -0.21117931581944
C            0.79155754760537        0.32477506225911       -0.17297991949268
C           -0.06184038372176       -0.80242294468807       -0.18050678071816
C           -1.43115641077739       -0.59626520870989       -0.27654116406751
C            0.51431365103349       -2.14041257755505       -0.08788123404365
C           -0.27093048415240       -3.29513638996364       -0.07742257741337
C            0.30642101557648       -4.55628528219140        0.00441432145456
C           -0.52597440754181       -5.69923324071765        0.01212193095580
N           -1.20425280046102       -6.62465572367990        0.01672509800173
C            1.69732488014103       -4.70460722580047        0.07787530010217
C            2.48278334089981       -3.57869409547381        0.06897604033694
C            1.91397295025975       -2.30184051086870       -0.01165561889101
C            2.78243101480284       -1.14437838009910       -0.01493212241145
N            4.08344777127421       -1.32623324673189        0.05795818588030
C            4.87523887641441       -0.23877896934725        0.06186867990875
C            6.27009878941351       -0.39679112931902        0.14188681967180
C            7.08743775267797        0.71154476330664        0.15167873701322
C            8.48994777188152        0.56370796088426        0.23443357619121
N            9.62759742566963        0.43327613749206        0.30252080017239
C            6.52460735791504        2.02180636678143        0.08000888246688
C            7.38424455845585        3.14470146714008        0.09382829942339
N            8.07090256035694        4.06302597230762        0.10410911898176
C            5.16295652368020        2.19438748701584       -0.00022079328061
C            4.30980627120142        1.07104486713654       -0.01091169925817
N            2.98527860793043        1.24820508217108       -0.08882192316131
C            2.21072826201603        0.17152225866438       -0.09252484664258
C           -4.27723428647984       -0.21805325668827       -0.44901266932050
C           -4.20478951653835       -1.28394863797057       -1.33749863239154
C           -5.14776233539028       -2.29393257610811       -1.27898856558720
C           -6.17461290286615       -2.22094069960770       -0.35420278127946
C           -6.27423621575025       -1.13103112023960        0.49499467207893
C           -5.33387291855955       -0.11223807584149        0.46074172572835
H           -6.71304433525679        2.19749419738713        2.65321556393471
H           -7.53131849020475        1.39302350543769        1.30363398595604
H           -6.92733056067115        0.46114717252174        2.68391299932420
H           -4.50456567137439        0.15674256539510        3.06909493129870
H           -4.28801506253001        1.91133349270141        3.04146019992998
H           -3.29961428918228        0.88266760086351        2.00724069754284
H           -6.51177839672953        3.68813383414914        1.10231569186156
H           -5.87286154975271        5.45156371612683       -0.45423805852247
H           -4.07161800893718        5.07021334194794       -2.10249916365392
H           -2.89149672335903        2.90560803668444       -2.14384669362193
H           -1.52907512714185        2.79105408734169       -0.29977108336691
H            0.88955005222854        2.45334186712726       -0.15392175519371
H           -2.09832092365645       -1.43900204373981       -0.23976302006977
H           -1.34600009963641       -3.23634600898791       -0.13094466846557
H            2.13291284866238       -5.69008471114834        0.13959086130767
H            3.55750834738852       -3.64986878060829        0.12400367976491
H            6.68228660313039       -1.39298036679807        0.19621169411962
H            4.72743771093718        3.18044788862940       -0.05510300500170
H           -3.42320374774405       -1.30956671256533       -2.08252172062606
H           -5.08562724942499       -3.12715457447767       -1.96282080029541
H           -6.91219071962016       -3.00768115449355       -0.30301010072061
H           -7.09881095704559       -1.08695898073544        1.18702892623973
