  66
       -110.04458400
 C         -7.3213452363       -0.0426521909       -0.0599944982
 C         -6.2647570137       -1.1622180004        0.0030131035
 C         -6.9513953491       -2.5404791162        0.0615260828
 C         -5.4391364081       -0.9807643041        1.2597989866
 C         -6.0594700753       -1.0025414837        2.5015361760
 C         -5.3494195187       -0.8470237542        3.6778367217
 C         -3.9762422190       -0.6657101714        3.6282934580
 C         -3.3328397721       -0.6407412395        2.4113607003
 C         -4.0497198439       -0.7950800640        1.2173822412
 N         -3.3773907610       -0.7636219593        0.0119838090
 C         -1.9613487056       -0.6030859605        0.0172285563
 C         -1.1386847142       -1.7363399188        0.0467126217
 C          0.2207257925       -1.5733208243        0.0473594835
 C          0.7947719192       -0.2917631346        0.0198185223
 C         -0.0300323062        0.8575148056       -0.0058152936
 C         -1.4178222107        0.6628070763       -0.0077827004
 C          0.5761105333        2.1687183943       -0.0306787958
 C         -0.1741853561        3.3475102564       -0.0410650037
 C          0.4397392589        4.5898645602       -0.0665465093
 C         -0.3551414678        5.7556984887       -0.0734364443
 N         -1.0077187644        6.6999160324       -0.0789604598
 C          1.8431318530        4.6942171838       -0.0842982439
 C          2.5951859748        3.5530247095       -0.0724863200
 C          1.9895096129        2.2830695298       -0.0437420912
 C          2.8176158634        1.1209529411       -0.0242256492
 N          4.1409160882        1.2250739054       -0.0388727873
 C          4.9256472896        0.1544061575       -0.0137953927
 C          6.3178845757        0.2559965667       -0.0302280010
 C          7.1130111857       -0.8833946577        0.0016934852
 C          8.5183148722       -0.7626045708       -0.0165380426
 N          9.6599977884       -0.6483478653       -0.0308219764
 C          6.5188920733       -2.1626229908        0.0519837544
 C          7.3303752057       -3.3149604828        0.0874151905
 N          7.9762913896       -4.2630188627        0.1189140615
 C          5.1335241064       -2.2876144279        0.0664567619
 C          4.3166072687       -1.1585980657        0.0333526247
 N          2.9889069300       -1.2485419168        0.0434579737
 C          2.2202858160       -0.1709951442        0.0148088665
 C         -4.0269803336       -0.9061714012       -1.1978722199
 C         -3.2883607569       -0.8550849939       -2.3875001036
 C         -3.9082978210       -0.9948039313       -3.6088414902
 C         -5.2794029088       -1.1887478715       -3.6671524357
 C         -6.0114674854       -1.2380446903       -2.4951067393
 C         -5.4151083630       -1.0989105099       -1.2492321828
 H         -7.9653306448       -0.0678377808        0.8142860874
 H         -6.8320433109        0.9288174699       -0.0983776119
 H         -7.9448786032       -0.1474483580       -0.9431292748
 H         -7.5833993879       -2.6210132895        0.9413115030
 H         -6.2012757372       -3.3280341328        0.1041850255
 H         -7.5692132929       -2.7026395527       -0.8170735693
 H         -7.1276579984       -1.1454303860        2.5589516790
 H         -5.8638323726       -0.8684076819        4.6257307100
 H         -3.4070565572       -0.5444351235        4.5368624895
 H         -2.2633736722       -0.5015465603        2.3745207091
 H         -1.5860482690       -2.7182776630        0.0670894442
 H          0.8856736095       -2.4229807455        0.0680796076
 H         -2.0939832606        1.5026962633       -0.0306415975
 H         -1.2524958596        3.3167408922       -0.0273278956
 H          2.3052574974        5.6694351530       -0.1055707729
 H          3.6735062718        3.5957921334       -0.0834926467
 H          6.7682997292        1.2356754772       -0.0675872374
 H          4.6741591993       -3.2632318717        0.1032001214
 H         -2.2207461683       -0.7041470808       -2.3437285161
 H         -3.3225503624       -0.9525400426       -4.5139876980
 H         -5.7754223167       -1.3004578995       -4.6185063925
 H         -7.0780174226       -1.3900749828       -2.5592219454
