66
 energy: -110.132169802801 gnorm: 0.000055079849 xtb: 6.7.1 (edcfbbe)
C           -6.23886298174196       -0.69611111937854       -0.00001397089022
C           -5.34048927900069        0.55539194301114        0.00001660637467
C           -6.20503890704631        1.83004112688261        0.00005364609112
C           -4.49094453009394        0.54235848029813       -1.25747231501758
C           -5.10758123042072        0.56315157867668       -2.50128274616379
C           -4.38542913934464        0.54904543086750       -3.68083578214948
C           -3.00355826324186        0.51216816539968       -3.62826080190271
C           -2.36439940726748        0.49047078479694       -2.40602224286854
C           -3.09329646622932        0.50524451045244       -1.21329235112599
N           -2.42136221122306        0.47980142304934        0.00000992939426
C           -1.00067281065197        0.44691830771574        0.00000593436822
C           -0.27446124540004        1.63935629445882        0.00001605351931
C            1.09903775789114        1.58998302998855        0.00000837021597
C            1.77238455125170        0.36321332903933       -0.00000405253423
C            1.04993539272170       -0.84836542850814       -0.00000854090249
C           -0.34566720870223       -0.77256442344705       -0.00000748476104
C            1.76157433310419       -2.12090849007364       -0.00001761638065
C            1.09395345495107       -3.34766400759691        0.00002050946198
C            1.79756119115100       -4.54552327579489       -0.00001601646967
C            1.08673888609036       -5.76877350200491       -0.00008847521588
N            0.51020291636908       -6.76043603513165        0.00000962577180
C            3.19859152855808       -4.55497621026693       -0.00006601260080
C            3.86908123609793       -3.35690725703056       -0.00007876323346
C            3.17277688710008       -2.14195817800473       -0.00006333916605
C            3.91665267337010       -0.90233024475742       -0.00006589496865
N            5.23465275253098       -0.94733282849235       -0.00009957870776
C            5.90796908177603        0.21239459396584       -0.00006772252046
C            7.31762192378020        0.19975332262131       -0.00007385903933
C            8.01177179893608        1.38649622204258       -0.00002539759679
C            9.42691437194113        1.38506428199887        0.00000785905912
N           10.57323900077305        1.37356201871375        0.00011097536575
C            7.31460298237417        2.63387401453879        0.00002190665422
C            8.05415227587800        3.84039471094589        0.00007800337379
N            8.64291810823722        4.82399717130662       -0.00002195219696
C            5.94024084823168        2.66568694337682        0.00004344428822
C            5.21084772841873        1.45900232210155        0.00000307453642
N            3.87065699177485        1.49436877198175        0.00002601111250
C            3.21649907543103        0.34845512173771       -0.00001335395500
C           -3.09329182123304        0.50518077608913        1.21331642476710
C           -2.36439226164385        0.49034976955862        2.40604424969047
C           -3.00354859799689        0.51198073922748        3.62828541399922
C           -4.38541950043748        0.54884862062963        3.68086520758446
C           -5.10757370982733        0.56301580321458        2.50131443360571
C           -4.49093974323439        0.54229065606872        1.25750171050299
H           -6.87510131903182       -0.71583008442535        0.88044162692047
H           -6.87510608182358       -0.71578585096628       -0.88046716484178
H           -5.62516133325158       -1.59556702350606       -0.00003824708494
H           -5.56715802734047        2.71238847896419        0.00007182257096
H           -6.84112431102982        1.86703179460338        0.87990973848983
H           -6.84113561284532        1.86707605494306       -0.87979236152435
H           -6.18509951214206        0.59032216155441       -2.55823619415608
H           -4.89845721966095        0.56588863347892       -4.63066646976359
H           -2.41983507047337        0.50040128096545       -4.53705242715029
H           -1.28584848617833        0.46299284098354       -2.37244501446143
H           -0.79832441799274        2.58279244480566        0.00002937485577
H            1.68957537783805        2.49224502688739        0.00001023717533
H           -0.95196230258483       -1.66376027409357       -0.00002120424546
H            0.01713771404413       -3.39350382375294        0.00008220273899
H            3.73109804146898       -5.49356746303220       -0.00009176459920
H            4.94693222813232       -3.32272665050931       -0.00009790580941
H            7.83207003944607       -0.74903723396876       -0.00010424867665
H            5.40305549061329        3.60176073235833        0.00009968231535
H           -1.28584153831261        0.46288121163152        2.37246395272909
H           -2.41982306087250        0.50017025170018        4.53707496946723
H           -4.89844605255419        0.56563977922736        4.63069763616658
H           -6.18509197944106        0.59018044787684        2.55827063950689
