  85
       -121.11356466
 C          3.1561307158        2.7898333941       -2.6030226263
 C          3.5041555916        1.6628042406       -1.6402022966
 C          3.6577295512        0.3216301541       -2.3529375874
 C          4.1085341183       -0.7776904194       -1.3936598869
 C          4.1733013657       -2.1601330463       -2.0466515109
 C          2.7962952423       -2.8225607621       -2.1928144319
 N          2.2271090003       -3.1747421471       -0.9092790245
 C          1.2784326288       -2.3537032361       -0.2932622615
 C          0.6185159017       -1.3499024639       -0.8964810008
 C         -0.3596178084       -0.4476886625       -0.2202236242
 C         -0.4646186754       -0.6248999185        1.2666712537
 C         -1.1329030189        0.2294295870        2.0582322411
 C         -1.8219605090        1.4842558932        1.6036230223
 C         -2.9415840003        1.2745239303        0.6114056965
 C         -4.0322011706        0.4421189431        0.7115122110
 C         -4.9665830037        0.4125565732       -0.3267736752
 C         -6.1417741173       -0.4664670725       -0.2426283799
 C         -6.5760071838       -1.1840053165       -1.3550654431
 C         -7.6846070668       -2.0057114242       -1.2746928830
 C         -8.3821924733       -2.1202122533       -0.0839205593
 C         -7.9603975674       -1.4109183210        1.0281760264
 C         -6.8480515813       -0.5939511455        0.9514262985
 C         -4.7806517148        1.2307238280       -1.4420894389
 C         -3.6875301711        2.0709556404       -1.5464531894
 C         -2.7603240117        2.0906188813       -0.5166448983
 C         -1.5180661761        2.8230215163       -0.3614942875
 C         -0.8726606348        3.7222820796       -1.1952428843
 C          0.3566957039        4.2244141481       -0.8097712792
 C          0.9594261013        3.8407824623        0.3896805576
 C          2.2941221507        4.3433510674        0.7444416365
 C          3.2285619729        3.5014779928        1.3452169145
 C          4.4957470865        3.9591784673        1.6523330615
 C          4.8512024715        5.2679736275        1.3728840422
 C          3.9280064813        6.1173151545        0.7864486635
 C          2.6619669257        5.6595987822        0.4727851507
 C          0.2928539894        2.9514282244        1.2368241470
 C         -0.9333142522        2.4539961979        0.8610655412
 C          0.1774883138       -1.7803060801        1.8250695324
 C          0.9789138781       -2.6005092644        1.1145439229
 O          1.5072926581       -3.6659121214        1.7737790596
 C          2.3649496470       -4.4942404169        1.1093957957
 C          2.8472998829       -5.5786778401        1.8238345140
 C          3.7369606562       -6.4607016149        1.2396094677
 C          4.1379717434       -6.2425493330       -0.0654841340
 C          3.6582434164       -5.1609996393       -0.7824216727
 C          2.7538105449       -4.2582886282       -0.2189586778
 H          3.9120401360        2.8749371141       -3.3810442994
 H          2.1940224322        2.6056836772       -3.0763160121
 H          3.1035490332        3.7360748117       -2.0704400371
 H          2.7195369409        1.5806534283       -0.8850606807
 H          4.4354428977        1.9075388403       -1.1243040987
 H          4.3928284301        0.4194628013       -3.1559587065
 H          2.7038898902        0.0555688911       -2.8114145548
 H          5.1007466102       -0.5195955908       -1.0162142223
 H          3.4326000066       -0.8110389043       -0.5369367443
 H          4.6287486787       -2.0756987673       -3.0356489258
 H          4.8072884945       -2.8096950440       -1.4398982168
 H          2.8766109540       -3.7254829462       -2.8041756088
 H          2.1186573366       -2.1525004274       -2.7140812218
 H          0.7582848990       -1.1198209920       -1.9397549733
 H         -1.3520564683       -0.6001927081       -0.6671392908
 H         -0.0869528120        0.5878298904       -0.4509229003
 H         -1.1836584005        0.0166357775        3.1166137018
 H         -2.2290603855        1.9882801466        2.4887676930
 H         -4.1553438726       -0.2015413034        1.5703372229
 H         -6.0265204531       -1.1115150261       -2.2826404689
 H         -8.0065749848       -2.5597344264       -2.1447705397
 H         -9.2507077122       -2.7593668850       -0.0230023205
 H         -8.5026318263       -1.4938221766        1.9590967307
 H         -6.5338506859       -0.0297690268        1.8176232426
 H         -5.5196241252        1.2178602612       -2.2301820343
 H         -3.5611782070        2.6993068160       -2.4158419623
 H         -1.3130498527        4.0177192741       -2.1361754443
 H          0.8775482387        4.9055112262       -1.4664636527
 H          2.9665953494        2.4741687597        1.5523546482
 H          5.2110747487        3.2904368797        2.1091115535
 H          5.8423506517        5.6246406538        1.6114607350
 H          4.1964229132        7.1419135433        0.5728761268
 H          1.9431279139        6.3337101990        0.0298902296
 H          0.7341272821        2.6631854797        2.1796239977
 H          0.0284398313       -1.9966437747        2.8721913465
 H          2.5116371524       -5.7042910874        2.8410189744
 H          4.1125143260       -7.3026190092        1.7991075825
 H          4.8347379713       -6.9173980998       -0.5393163543
 H          4.0022043618       -5.0351247202       -1.7950526829
