55
 energy: -88.999152558755 gnorm: 0.000103891868 xtb: 6.7.1 (edcfbbe)
N           -2.59967888485692       -5.76292586937055        0.01442249927267
C           -2.71525100910180       -4.61379430853929        0.01143173579828
C           -2.84585427245267       -3.22845470389177        0.00754592278792
C           -4.13662433710154       -2.62981619116859        0.00486334974791
C           -4.28975774342856       -1.27738971181892        0.00135465678458
C           -3.13739318051015       -0.44568806525866        0.00035015925401
C           -1.83796325754683       -1.06309820200433        0.00280235063300
C           -1.68257278582287       -2.40823276758947        0.00635463690569
C           -0.75298126332505        0.00331884210271        0.00092995086411
C           -1.59132086749724        1.27510740635933       -0.00196525809745
C           -1.15765852559542        2.55768989516733       -0.00410407189708
C           -2.12339538205716        3.60328928037026       -0.00701186531072
C           -1.70465907813246        4.93014634303647       -0.00910621879336
N           -1.34850058047709        6.02886904297823       -0.01090308231894
C           -3.51091329706367        3.28770350273882       -0.00782235024703
C           -3.94337479020716        1.99729999899582       -0.00563086146975
C           -2.99067194596690        0.94266978199027       -0.00251933421068
C            0.07315616602352       -0.07137268995446        1.25409424021497
C           -0.56787742975412       -0.05971640404767        2.48465347266782
C            0.14836549456494       -0.11225333568306        3.66514964065922
C            1.53432363049070       -0.17595663077403        3.62216711598081
C            2.19175461411738       -0.18836969365395        2.41178815915321
C            1.47307451450729       -0.13700250324250        1.21044931655621
N            2.13934371232546       -0.15404085706422        0.00142883306275
C            3.56497097300321       -0.20317921046155        0.00174302090006
C            4.21422944676217       -1.43064778909147       -0.01089873885915
C            5.59733967806028       -1.47152754234009       -0.01060330613727
C            6.32810107029760       -0.29478717617502        0.00234490138165
C            5.67686224830456        0.92761944752142        0.01501622449892
C            4.29395441799319        0.97838217367554        0.01471944258744
C            1.47337693351810       -0.13983328414858       -1.20779209406600
C            2.19243938143045       -0.19076184285453       -2.40892305981066
C            1.53521615417540       -0.18209849019197       -3.61944690123459
C            0.14910492774144       -0.12213085110038       -3.66280404905956
C           -0.56743258999384       -0.06806829557229       -2.48255938977011
C            0.07339411674137       -0.07575138301718       -1.25185932922052
H           -4.99780523624986       -3.28229461546862        0.00574593676874
H           -5.27151734705027       -0.82898858409676       -0.00060634843662
H           -0.70696539250297       -2.87330779042334        0.00838665962993
H           -0.10636307238009        2.80877855507526       -0.00370998819307
H           -4.21656533649357        4.10587388188664       -0.01024382951807
H           -4.99720918686059        1.76414374016717       -0.00624797011164
H           -1.64618577397291       -0.00767353048481        2.50890264487431
H           -0.36750082666632       -0.10269396441365        4.61229855691102
H            2.10443294409073       -0.21639300757287        4.53755670761232
H            3.26927212122612       -0.23888137341784        2.38671229450760
H            3.63312709326926       -2.34071091687958       -0.02093767596352
H            6.10374393466636       -2.42456238538426       -0.02042026179124
H            7.40670373072389       -0.33058250318768        0.00256157165619
H            6.24511346657118        1.84507911394434        0.02506829078919
H            3.77477233698355        1.92507879862360        0.02454961219900
H            3.27012064840268       -0.23742415067831       -2.38360629963930
H            2.10562408526308       -0.22226717887825       -4.53466199708610
H           -0.36662048017227       -0.11581074736406       -4.61005656342463
H           -1.64580705876246       -0.01763423582671       -2.50715242602842
