55
 energy: -89.082839805444 gnorm: 0.000095573544 xtb: 6.7.1 (edcfbbe)
N           -2.60129037308976       -5.76582470061851        0.01649063990137
C           -2.70625067636049       -4.62400986052799        0.01264086682333
C           -2.83484514938993       -3.21681875132221        0.00797495648000
C           -4.10936181522079       -2.64252279994874        0.00445825446686
C           -4.25895599139089       -1.26863757496115        0.00044489075402
C           -3.12163274251266       -0.47390561174652       -0.00010844036775
C           -1.84246067266615       -1.05516370742353        0.00297881094163
C           -1.68459675889604       -2.42002564168928        0.00715712107862
C           -0.76405807629953        0.00779607560088        0.00115717859933
C           -1.59821872454505        1.27295113140743       -0.00187302727996
C           -1.15936432885239        2.57483606762948       -0.00387968943409
C           -2.11832120936078        3.59368734744977       -0.00717307770416
C           -1.69894610265575        4.94303511944171       -0.00931345315308
N           -1.35736887207517        6.03764188498791       -0.01137426918806
C           -3.48445625543314        3.29719724361737       -0.00845287942678
C           -3.91680886181371        1.98459084178802       -0.00640635184477
C           -2.96992589368223        0.97042696794217       -0.00307898684906
C            0.07034502886312       -0.07010736167864        1.25925417784355
C           -0.57416435937540       -0.06003893503879        2.48731842645389
C            0.13691865776492       -0.11512783972255        3.67113711785043
C            1.51934842083354       -0.17978611843217        3.62597904227184
C            2.17708207415136       -0.19073305441399        2.41364250373101
C            1.46514226738930       -0.13634893851016        1.21169533197084
N            2.13632570845151       -0.14982886496040        0.00153595563732
C            3.56070297517233       -0.20087490833784        0.00178486423041
C            4.21172651973373       -1.42754330972151       -0.01148104731450
C            5.59467842193199       -1.47050239981803       -0.01145207316434
C            6.32662290247902       -0.29461766392420        0.00200221646891
C            5.67604787320775        0.92799539744387        0.01536890594183
C            4.29324395427494        0.97861364508485        0.01520759250967
C            1.46535765426372       -0.13917240091519       -1.20876940566914
C            2.17762140889180       -0.19287565804640       -2.41056087174947
C            1.52005379059814       -0.18531237967386       -3.62300934780411
C            0.13747046764554       -0.12430206162263       -3.66845431951846
C           -0.57384991666448       -0.06797284545119       -2.48483939882081
C            0.07049862165489       -0.07443852906473       -1.25667027452298
H           -4.97618173345667       -3.28688312871965        0.00521427152949
H           -5.24370381778264       -0.82638249481309       -0.00199828496297
H           -0.70489768633158       -2.87460751382763        0.00968777262486
H           -0.10645394171098        2.81546607838684       -0.00299600452264
H           -4.19808344163295        4.10793591894845       -0.01101113369939
H           -4.97209543352282        1.75723074517098       -0.00743435546247
H           -1.65357987438402       -0.00654072524960        2.51093759525085
H           -0.38186975999771       -0.10621331223893        4.61687450587879
H            2.09175695454115       -0.22223497545937        4.54033321248482
H            3.25482488937738       -0.24177856990917        2.39033527695094
H            3.63017186969615       -2.33757285353947       -0.02213163140320
H            6.10125802777090       -2.42386869066972       -0.02199455747763
H            7.40553941391767       -0.33122721974543        0.00211125569067
H            6.24583679877559        1.84495384849617        0.02609313530721
H            3.77496833803752        1.92606190067490        0.02582753524608
H            3.25552747212234       -0.24012065328277       -2.38707575408616
H            2.09272529435874       -0.22731382861452       -4.53721840954646
H           -0.38122647743568       -0.11827476203933       -4.61426340222639
H           -1.65332609734020       -0.01591588809332       -2.50878117875268
