55
 energy: -89.082849069017 gnorm: 0.000046015624 xtb: 6.7.1 (edcfbbe)
N           -2.21768248358857       -5.93460985732099        0.00011210272404
C           -2.44153217197389       -4.81000445686197        0.00004485360981
C           -2.71682584345930       -3.42403281856546        0.00004536779100
C           -4.04444253611481       -2.98623504249045        0.00004328493647
C           -4.33704621701431       -1.63557415789549        0.00003717814511
C           -3.28918748827314       -0.72612122085347        0.00003392577354
C           -1.95644237954218       -1.17043592761506        0.00002885779649
C           -1.65640708809699       -2.51118786667658        0.00003390856763
C           -0.99480003740370        0.00000360657401        0.00000974165804
C           -1.95642023217009        1.17046281588067       -0.00001003001099
C           -1.65635756328300        2.51120639639097       -0.00005987179683
C           -2.71675555450838        3.42408133820412       -0.00007997952469
C           -2.44144066415720        4.81004291411708       -0.00014305956184
N           -2.21758658836311        5.93465266709475       -0.00019936978771
C           -4.04438260940277        2.98630236760211       -0.00005258108654
C           -4.33701307265459        1.63564944311059       -0.00000450154141
C           -3.28917343925826        0.72617368576969        0.00001089355918
C           -0.15671278260164        0.00001231680140        1.25809916992765
C           -0.80081351246757        0.00003359231614        2.48643763891578
C           -0.08782941028276        0.00004277771740        3.67036513176540
C            1.29611240747370        0.00002912141829        3.62497498543746
C            1.95344773443845        0.00000596193763        2.41238403293891
C            1.23962127675848       -0.00000156604653        1.21029803880592
N            1.91063254772283       -0.00002581522317        0.00000483116517
C            3.33593705741223       -0.00002834416397        0.00000315165269
C            4.02811961430411       -1.20386507371414       -0.00001501227411
C            5.41178753988408       -1.20003437686934       -0.00001791452187
C            6.10344959500883       -0.00003037839983       -0.00000156614413
C            5.41178939608098        1.19997469313530        0.00001679821095
C            4.02812160226723        1.20380723126001        0.00001973609368
C            1.23961754406424       -0.00003444918223       -1.21028612318779
C            1.95343958588593       -0.00005634863487       -2.41237539375181
C            1.29609941270894       -0.00006364700698       -3.62496353218569
C           -0.08784253470748       -0.00004789527377       -3.67034809396613
C           -0.80082187297559       -0.00002735575346       -2.48641762348366
C           -0.15671643316119       -0.00002148872964       -1.25808194457166
H           -4.83902539334367       -3.71781522648001        0.00004961395035
H           -5.36272158421372       -1.29894718274929        0.00003318510619
H           -0.63446635557892       -2.86067565066734        0.00003083947627
H           -0.63441079313746        2.86067613788326       -0.00008073748183
H           -4.83894778099248        3.71790202238874       -0.00006934588334
H           -5.36269547364167        1.29904320318089        0.00002817383936
H           -1.88156185941600        0.00004257287673        2.51006545216836
H           -0.60634617532444        0.00005772889751        4.61629280419038
H            1.87002764665598        0.00003442786448        4.53936725608786
H            3.03239746898650       -0.00000653143438        2.38897573066892
H            3.47789987512664       -2.13320919786217       -0.00002861289466
H            5.95027487931690       -2.13579350989019       -0.00003442977616
H            7.18298347845029       -0.00003117651929       -0.00000374773288
H            5.95027791543716        2.13573312414599        0.00003204023752
H            3.47790295129096        2.13315201918139        0.00003644878644
H            3.03238935036774       -0.00006771643322       -2.38897071551720
H            1.87001133246682       -0.00007960310984       -4.53935789783989
H           -0.60636301915127       -0.00004894119499       -4.61627350002219
H           -1.88157026185748       -0.00001034212754       -2.51004058943633
