55
 energy: -88.999156283802 gnorm: 0.000069459324 xtb: 6.7.1 (edcfbbe)
N           -3.74604168991911       -5.27160584974674       -0.04015468813332
C           -3.62385941505789       -4.12330068152799       -0.03147011788000
C           -3.47017061950517       -2.74020702808708       -0.02104686855843
C           -4.61304559021713       -1.89284587821470       -0.01564779795630
C           -4.48929823642472       -0.53728283926619       -0.00561073671798
C           -3.19247961836382        0.04367736289212       -0.00059832441479
C           -2.04429274362237       -0.82372444756370       -0.00632512184286
C           -2.16494755038473       -2.17270844013333       -0.01612054347258
C           -0.76762328864709       -0.00052757447354       -0.00071787479512
C           -1.33087080286258        1.41661615236582        0.00972414768044
C           -0.64607366438818        2.58442134081668        0.01861594008974
C           -1.37950260237697        3.80399101225648        0.02767801652772
C           -0.69861879248756        5.01722012649581        0.03729891327216
N           -0.12253802027894        6.01831530101419        0.04548490176577
C           -2.80227808078622        3.77579096589864        0.02698440491030
C           -3.48696445548878        2.59972917978546        0.01795965188479
C           -2.76808229477061        1.37371632667651        0.00911347909202
C            0.03448650328355       -0.23045578059653        1.24921089511244
C           -0.60840140489441       -0.22077870321384        2.47857050147910
C            0.09733905622730       -0.38044887194347        3.65596738207252
C            1.47462833824138       -0.54685309738974        3.61131348382512
C            2.13383825965742       -0.55955646667124        2.40178232085322
C            1.42524537354209       -0.40488892106604        1.20354659115873
N            2.09066426418657       -0.43175167284418       -0.00589290943795
C            3.51153306455182       -0.55705310700726       -0.00746653992671
C            4.09766025119928       -1.81580482446393       -0.04059064465281
C            5.47677036396691       -1.92692415835458       -0.04257987020319
C            6.26645270167795       -0.78908633594775       -0.01148868437261
C            5.67822157461937        0.46433348188961        0.02186516561482
C            4.29955846561435        0.58531770045455        0.02396975637082
C            1.42384463529202       -0.38592956560149       -1.21400373345141
C            2.13125206053079       -0.51747083559402       -2.41570039255050
C            1.47020739896653       -0.48722159011591       -3.62391538142399
C            0.09232366595404       -0.32470009195745       -3.66390872730737
C           -0.61190589467322       -0.18463421645591       -2.48312920229960
C            0.03282058389071       -0.21224663262553       -1.25499985829621
H           -5.58848830845489       -2.35744791215062       -0.01980985345636
H           -5.36003099345962        0.10044593072077       -0.00160433080317
H           -1.30348479290531       -2.82526075514531       -0.02039809859919
H            0.43435171630394        2.61764030639655        0.01902049381592
H           -3.32765338802226        4.71986164526156        0.03389079452094
H           -4.56617997123165        2.58498320947041        0.01749830256457
H           -1.67898518723954       -0.08246397591607        2.50511579326041
H           -0.41988856735319       -0.37138376977972        4.60239175072535
H            2.03657730721132       -0.66777288929135        4.52464862843543
H            3.20441850724103       -0.69137760925866        2.37507221917229
H            3.47075092638581       -2.69474981796618       -0.06471067550464
H            5.93413246719537       -2.90418416354465       -0.06848505266996
H            7.34182893968618       -0.87976390964471       -0.01327700234857
H            6.29217949371014        1.35153075945701        0.04615874509262
H            3.82989806096209        1.55719651945149        0.04982522062324
H            3.20247131972275       -0.64456792841839       -2.39294070804129
H            2.03128005648444       -0.59095243738953       -4.53989672793274
H           -0.42640440924793       -0.30235293619985       -4.60928667758542
H           -1.68273923435292       -0.04763996840793       -2.50599925966222
