  90
       -133.21175373
 C         -5.1693762305       -0.0298046074        2.2972111758
 C         -5.3571671890       -0.2882527919        0.7994849671
 C         -6.3175483139        0.7395056794        0.1942279974
 C         -5.8321821435       -1.7018117739        0.5460106953
 C         -6.9973617090       -2.3083071780        0.9602443080
 C         -7.2266577396       -3.6319179856        0.6064327543
 C         -6.3006569742       -4.3338983107       -0.1490841593
 C         -5.1256617306       -3.7317460306       -0.5690420999
 C         -4.8941251491       -2.4115855471       -0.2190985873
 C         -3.7765129693       -1.5320352380       -0.5095952371
 C         -2.6062606673       -1.7393910296       -1.2210682744
 C         -1.7000433144       -0.7034584892       -1.3439549740
 C         -1.9417687761        0.5389288487       -0.7533329447
 N         -1.0058916038        1.5668163414       -0.8414988114
 C         -1.4328662093        2.8988150518       -0.9558676631
 C         -2.5724846553        3.2173249905       -1.6926264886
 C         -2.9678186984        4.5315282745       -1.8468434580
 C         -2.2172602162        5.5526462229       -1.2870057019
 C         -1.0827635217        5.2455833372       -0.5578582594
 C         -0.6843720157        3.9283129287       -0.3663219901
 C          0.4915640338        3.6455957004        0.4776487088
 C          0.3736907189        2.8193262925        1.5902631231
 C          1.4580617534        2.5965067033        2.4171151970
 C          2.6735361078        3.2016683111        2.1446015320
 C          2.8030189531        4.0177646162        1.0331609134
 C          1.7181030192        4.2425466281        0.2066258117
 C          0.3380344874        1.2825455561       -1.1285131241
 C          0.9600741441        1.9645964256       -2.1771748230
 C          2.2659526957        1.7052153321       -2.5423501340
 C          2.9948784068        0.7212405686       -1.8903886426
 C          2.3929316300        0.0505489510       -0.8497198761
 C          1.0846053741        0.3313349510       -0.4260290636
 C          0.8055089109       -0.4836308661        0.7523751261
 C         -0.2793341497       -0.5504790313        1.6143902185
 C         -0.2285701040       -1.4147371235        2.6963608863
 C          0.8832194100       -2.2067164525        2.9335457608
 C          1.9795549785       -2.1425464780        2.0855065330
 C          1.9313562335       -1.2813859704        1.0123532510
 C          2.9990331295       -1.0536818087       -0.0236817702
 C          4.3641002687       -0.7411689670        0.5291574061
 C          4.7298111001        0.3018353953        1.3502438101
 C          6.0589501777        0.4008970257        1.7391568595
 C          6.9958614919       -0.5276083945        1.3104363587
 C          6.6310549739       -1.5764367907        0.4812008450
 C          5.3068330464       -1.6813452923        0.0887102183
 C          4.6298422176       -2.6471990797       -0.7624761563
 C          5.1007284011       -3.7608488552       -1.4381658930
 C          4.2064648046       -4.5112307420       -2.1849377535
 C          2.8666501313       -4.1602964214       -2.2553653295
 C          2.3875728034       -3.0452778308       -1.5808486915
 C          3.2749870194       -2.2956037090       -0.8412091662
 C         -3.1275514760        0.7458526687       -0.0353046523
 C         -4.0298523104       -0.2822690828        0.0763320556
 H         -4.4794031559       -0.7579400885        2.7183054959
 H         -4.7679808036        0.9675742799        2.4613583567
 H         -6.1206931213       -0.1119192303        2.8172422477
 H         -7.2879228858        0.6833736282        0.6813687796
 H         -5.9219807909        1.7451021775        0.3189468600
 H         -6.4508559150        0.5469515985       -0.8682931461
 H         -7.7259712200       -1.7709579261        1.5501688675
 H         -8.1366087623       -4.1196359755        0.9241442835
 H         -6.4981957127       -5.3631412386       -0.4121139727
 H         -4.4053120136       -4.2813300945       -1.1568643361
 H         -2.4034479296       -2.6933690024       -1.6845410637
 H         -0.7924669190       -0.8479656559       -1.9102232802
 H         -3.1395461233        2.4217457325       -2.1532856227
 H         -3.8539606414        4.7595962973       -2.4202927017
 H         -2.5160140676        6.5817463967       -1.4160020922
 H         -0.5014778062        6.0343995017       -0.1026305595
 H         -0.5783584081        2.3648324743        1.8173214995
 H          1.3528629895        1.9518424790        3.2779196018
 H          3.5157971647        3.0492395363        2.8040761165
 H          3.7521687803        4.4847531864        0.8140422648
 H          1.8193102767        4.8778301925       -0.6614473110
 H          0.3918933602        2.7074789855       -2.7181109635
 H          2.7105380125        2.2565600381       -3.3573945538
 H          4.0068830519        0.4876257772       -2.1843001301
 H         -1.1594084032        0.0498411917        1.4623781625
 H         -1.0737531940       -1.4699041226        3.3676199552
 H          0.8987554529       -2.8726865774        3.7836479889
 H          2.8556706783       -2.7491378578        2.2635579889
 H          3.9954432307        1.0229470837        1.6743992598
 H          6.3687330047        1.2110586174        2.3831416782
 H          8.0243961116       -0.4304233288        1.6263167887
 H          7.3654011158       -2.2949008053        0.1482881152
 H          6.1424196565       -4.0403808676       -1.3844961389
 H          4.5562626914       -5.3831772992       -2.7180183678
 H          2.1878419582       -4.7624722352       -2.8412155339
 H          1.3432008243       -2.7736380536       -1.6306574581
 H         -3.3113497281        1.7043553934        0.4283269527
