  53
  -85.5525525163000       0.356329308658624      !
 C         -7.5016748863       -2.5444812786       -0.0355971545
 O         -6.1780205812       -3.0159884160       -0.0422598458
 C         -5.1642832488       -2.0997614520       -0.0281273082
 C         -3.8719064166       -2.6475195587       -0.0253630561
 C         -2.7456547803       -1.8550852977       -0.0008755302
 C         -2.9178862605       -0.4777200870        0.0335352249
 C         -4.2099734971        0.0836764686       -0.0031494747
 C         -5.3404683185       -0.7259414791       -0.0292224836
 C         -4.0387424157        1.5094754304       -0.0206953084
 C         -4.9278348918        2.5761781151       -0.0376360986
 C         -4.4217068082        3.8602309198       -0.0215075353
 C         -3.0483404309        4.0866223127        0.0326437960
 C         -2.1439801556        3.0419160756        0.0498684527
 C         -2.6454552395        1.7489229361       -0.0006512869
 N         -1.9754422189        0.5397853370        0.0325208822
 C         -0.5928328498        0.3702459463        0.0398225070
 C          0.2099564455        1.0922241938       -0.8431692746
 C          1.5777311447        0.9251158482       -0.8350452822
 C          2.1751722002        0.0160637772        0.0368403118
 C          3.6261747563       -0.1825186421        0.0175067323
 C          4.5158916878        0.9016065111        0.0326733167
 C          4.0499880118        2.2300927794        0.1295870226
 N          3.7111903383        3.3195258671        0.2508443556
 C          5.9008499239        0.6597125054       -0.0059223360
 C          6.8830770483        1.7813531181        0.0220736127
 N          6.3899020918       -0.5672600731       -0.0572535268
 C          5.5829524844       -1.6133721536       -0.0691149867
 C          6.2160388875       -2.9619363585       -0.1340326215
 C          4.1841747944       -1.4679118483       -0.0315229606
 C          3.3694135811       -2.6176697354       -0.1059223550
 N          2.7575454143       -3.5867973150       -0.1622056206
 C          1.3705092087       -0.7084142500        0.9149191390
 C          0.0044917646       -0.5258538667        0.9260083599
 H         -7.7238593831       -1.9538709585       -0.9308517978
 H         -8.1318703705       -3.4324728762       -0.0264698932
 H         -7.7108052041       -1.9440083518        0.8561528643
 H         -3.7855494916       -3.7219860157       -0.0481312550
 H         -1.7642819039       -2.3027319227       -0.0236081988
 H         -6.3176589094       -0.2718701528       -0.0559867455
 H         -5.9927730676        2.3999943791       -0.0578469107
 H         -5.0957155350        4.7036415185       -0.0384821923
 H         -2.6808702429        5.1014673597        0.0662716033
 H         -1.0836134132        3.2324445429        0.1159037065
 H         -0.2474255282        1.7666562758       -1.5502496091
 H          2.1858348359        1.4758502967       -1.5375267063
 H          7.8712966440        1.4035598490       -0.2235247644
 H          6.5973374448        2.5655603328       -0.6765135878
 H          6.9118321314        2.2223426662        1.0187227895
 H          7.2959634943       -2.8533728013       -0.1707185741
 H          5.9386114013       -3.5534757056        0.7377282083
 H          5.8721011928       -3.4994255177       -1.0169987755
 H          1.8219240320       -1.3939300093        1.6169614140
 H         -0.6070024615       -1.0638832267        1.6334959461
  53
  -85.5525392965000       0.351379277740740      !
 C         -7.5206619690       -2.5114873898       -0.2280212508
 O         -6.1998440464       -2.9909223077       -0.2392429748
 C         -5.1809261961       -2.0833108596       -0.1660611992
 C         -3.8920510322       -2.6393184237       -0.1790633946
 C         -2.7609352983       -1.8556899680       -0.1213483515
 C         -2.9246452143       -0.4782523582       -0.0600403086
 C         -4.2137287812        0.0892243246       -0.0135453962
 C         -5.3492554402       -0.7117190609       -0.0718084553
 C         -4.0337741866        1.5087065873        0.1105290830
 C         -4.9158995274        2.5791081798        0.1800252528
 C         -4.4010356093        3.8567269824        0.2686635302
 C         -3.0252232881        4.0747695592        0.2685386642
 C         -2.1275675530        3.0263555197        0.2002025618
 C         -2.6388531603        1.7375571523        0.1426963297
 N         -1.9762361538        0.5284640532        0.0382102362
 C         -0.5945851463        0.3506270867        0.0278679603
 C          0.0032544814       -0.4714590347       -0.9271030252
 C          1.3691822317       -0.6538541456       -0.9306044327
 C          2.1734615179       -0.0042821136        0.0049238201
 C          3.6260462693       -0.1905328661       -0.0054971200
 C          4.5038883364        0.9004579479        0.0741352671
 C          4.0250038290        2.2272501540        0.1118767920
 N          3.6852322360        3.3230054669        0.1241169228
 C          5.8920231607        0.6735632257        0.0632990667
 C          6.8592994701        1.8058899193        0.1407549576
 N          6.3955012331       -0.5455536695       -0.0184706935
 C          5.6000431879       -1.5980064713       -0.0950304583
 C          6.2493971490       -2.9377064740       -0.1790835269
 C          4.1993990066       -1.4674102068       -0.0932301057
 C          3.4014106306       -2.6307724115       -0.1267882088
 N          2.7969945811       -3.6058204921       -0.1362686024
 C          1.5743178812        0.8245004134        0.9524971270
 C          0.2065950219        0.9923363757        0.9719421463
 H         -8.1557527689       -3.3928679827       -0.3030172231
 H         -7.7489734464       -1.9807182791        0.7025073583
 H         -7.7170893965       -1.8514772205       -1.0798001366
 H         -3.8128363807       -3.7132999764       -0.2315280386
 H         -1.7826176169       -2.3104999704       -0.1096090565
 H         -6.3241686410       -0.2534034469       -0.0360224443
 H         -5.9821508946        2.4111233230        0.1588795861
 H         -5.0697315065        4.7025365145        0.3269090138
 H         -2.6504368035        5.0862711159        0.3182286326
 H         -1.0644942672        3.2118325148        0.1771848843
 H         -0.6079019532       -0.9483761934       -1.6774827218
 H          1.8210083440       -1.2768277955       -1.6883885777
 H          6.7052557353        2.4930976020       -0.6903931714
 H          6.7120136522        2.3684703940        1.0620236888
 H          7.8732125937        1.4180290239        0.1100320198
 H          7.3286759140       -2.8193510573       -0.1435611182
 H          5.9225646445       -3.5697714004        0.6461499421
 H          5.9683951040       -3.4376038593       -1.1057084594
 H          2.1808684120        1.3113675319        1.7019017677
 H         -0.2514683716        1.6059892003        1.7320168725
  53
  -85.5519978290000       0.198123007561784      !
 C         -7.5065158609       -2.1918124896        1.3252467740
 O         -6.1844431350       -2.6405907708        1.4843407284
 C         -5.1704679677       -1.8356133061        1.0468238769
 C         -3.8799703344       -2.3526638343        1.2411409782
 C         -2.7533523895       -1.6568025154        0.8628018165
 C         -2.9224129092       -0.4062876478        0.2839498652
 C         -4.2140870473        0.1086254608        0.0546040833
 C         -5.3452478859       -0.6025105764        0.4408609921
 C         -4.0408326355        1.3720478365       -0.6054878117
 C         -4.9267786030        2.3413977106       -1.0573870029
 C         -4.4173895966        3.4847239749       -1.6390890430
 C         -3.0424951928        3.6758517166       -1.7558067062
 C         -2.1413728685        2.7261381408       -1.3140045120
 C         -2.6474768740        1.5611669314       -0.7552396582
 N         -1.9795722263        0.4796478506       -0.2130021976
 C         -0.5960131830        0.3127756994       -0.1600000077
 C          0.1836051183        0.5194003035       -1.2971792119
 C          1.5510721223        0.3525682248       -1.2421740852
 C          2.1719236751       -0.0179631266       -0.0505770859
 C          3.6262307907       -0.1915215050        0.0091067025
 C          4.3901217285        0.3892303119        1.0318208153
 C          3.7996040840        1.2106077107        2.0157585771
 N          3.3692717237        1.9021623225        2.8233199246
 C          5.7830123142        0.1929529591        1.0523247705
 C          6.6311685428        0.7984739187        2.1189656782
 N          6.3959760850       -0.5282538255        0.1301682999
 C          5.7100003538       -1.0900412097       -0.8496761311
 C          6.4773153948       -1.8918833099       -1.8456542175
 C          4.3141389159       -0.9467000606       -0.9516061651
 C          3.6323012756       -1.6094861246       -1.9943664884
 N          3.1208477237       -2.1836446603       -2.8457088087
 C          1.3901162992       -0.2220868504        1.0852835950
 C          0.0219212518       -0.0624602046        1.0320936120
 H         -7.7606450097       -2.0525913615        0.2690210997
 H         -8.1368771689       -2.9739548592        1.7455792818
 H         -7.6821621097       -1.2562478193        1.8670124530
 H         -3.7966274345       -3.3261795927        1.6971504508
 H         -1.7733769652       -2.0860935317        1.0029095648
 H         -6.3222605772       -0.1863745276        0.2563893219
 H         -5.9917861203        2.2018056213       -0.9488631785
 H         -5.0891549659        4.2491928984       -1.9999286658
 H         -2.6718228762        4.5889972216       -2.1975358634
 H         -1.0782025500        2.8969995359       -1.3894664686
 H         -0.2905403433        0.7905032183       -2.2277224261
 H          2.1446466128        0.5258118892       -2.1277419679
 H          6.3031280827        0.4631786247        3.1021480007
 H          7.6672465135        0.5128356064        1.9629016584
 H          6.5456387846        1.8844716863        2.0984918833
 H          6.1239348294       -2.9224833483       -1.8542365746
 H          6.3357805809       -1.4893430169       -2.8480102539
 H          7.5327199778       -1.8712853974       -1.5903961871
 H          1.8552580133       -0.5231310863        2.0124294253
 H         -0.5743585364       -0.2087064624        1.9193505239
  53
  -85.5512949307000       9.416840603885160E-002 !
 C         -6.3663326203       -3.5954336008        1.8898825499
 O         -6.4249074304       -2.3223102443        1.2984348326
 C         -5.2559097979       -1.6987364900        0.9613855192
 C         -3.9847656119       -2.2395858933        1.1718719346
 C         -2.8403928835       -1.5490094110        0.8111761997
 C         -2.9755594991       -0.2951497470        0.2422167005
 C         -4.2573453654        0.2476011030       -0.0023234776
 C         -5.3948066968       -0.4511885488        0.3614912149
 C         -4.0484690971        1.5132137807       -0.6503770790
 C         -4.9100581568        2.5012882718       -1.1066826391
 C         -4.3709360145        3.6393037129       -1.6728665346
 C         -2.9914564190        3.8050948723       -1.7681294281
 C         -2.1143956443        2.8352522851       -1.3205391103
 C         -2.6503336119        1.6759016178       -0.7784182759
 N         -2.0092655298        0.5774943629       -0.2347287355
 C         -0.6306259455        0.3809486377       -0.1730162842
 C          0.1627419698        0.5887334810       -1.3007871884
 C          1.5257657515        0.3926182930       -1.2379792941
 C          2.1299499771       -0.0102999186       -0.0480434795
 C          3.5800260800       -0.2124748377        0.0173143195
 C          4.3488877086        0.3301667758        1.0572307747
 C          3.7681433617        1.1331875996        2.0619092725
 N          3.3473335987        1.8065271101        2.8898534141
 C          5.7389683487        0.1144662080        1.0757919590
 C          6.5923489346        0.6782142624        2.1609698274
 N          6.3448023794       -0.5910081308        0.1369436340
 C          5.6536404144       -1.1202718155       -0.8571794847
 C          6.4128837483       -1.9069704704       -1.8712532004
 C          4.2602138264       -0.9552806784       -0.9586780778
 C          3.5722730469       -1.5872043870       -2.0164190909
 N          3.0590677610       -2.1376415488       -2.8822237870
 C          1.3347063627       -0.2164317740        1.0781564312
 C         -0.0292499826       -0.0263693338        1.0173128786
 H         -5.8340012667       -3.5731429805        2.8468343981
 H         -7.4013368503       -3.8865612842        2.0631975449
 H         -5.8928040916       -4.3278483636        1.2274030575
 H         -3.8737927503       -3.2152514228        1.6173147477
 H         -1.8709759237       -1.9985406774        0.9629699937
 H         -6.3825044256       -0.0572020558        0.1866232706
 H         -5.9781583384        2.3786288480       -1.0127028292
 H         -5.0228334734        4.4190050179       -2.0373641840
 H         -2.5968395125        4.7142073648       -2.1973236234
 H         -1.0473485359        2.9874661466       -1.3793390657
 H         -0.2980005307        0.8838590601       -2.2307045016
 H          2.1295466764        0.5682775559       -2.1161469920
 H          6.4640906971        1.7580682324        2.2239349703
 H          6.3048356670        0.2577618173        3.1243042104
 H          7.6336968819        0.4434376358        1.9610442068
 H          6.2913746829       -1.4678953206       -2.8608408214
 H          7.4658190469       -1.9186004925       -1.6055818255
 H          6.0361515884       -2.9280971318       -1.9181405650
 H          1.7859731563       -0.5414857336        2.0040649061
 H         -0.6345187890       -0.1699906685        1.8988679473
