74
 energy: -85.326878087439 gnorm: 0.000026709764 xtb: 6.7.1 (edcfbbe)
C            8.65719584800527        1.27767067785657       -0.25171209122171
C            8.26730750811454       -0.19352093400688       -0.38828893099067
C            8.43675211875642       -0.91587615157719        0.94755134833206
C            6.85419906317564       -0.36764205184710       -0.96578593417926
C            5.72072629002063        0.19888313728148       -0.11172788568727
C            4.36452460795818       -0.02807373538755       -0.78067606922977
C            3.18054869487157        0.51155075858333        0.04288159533083
C            3.11718054454741        2.03126545355619       -0.11204399984324
C            1.87726511460618       -0.17827416068981       -0.40012253933449
C            1.93630935601478       -1.71419802133176       -0.18872768015770
C            0.51567431593230       -2.18215199852117        0.17295205204544
C           -0.34254782681528       -0.95958178448520       -0.13214218516746
C           -1.75558552496898       -0.90553269158771        0.43970447441573
C           -2.56741032242572       -2.15174661172547        0.00254651414718
C           -3.98903390363941       -1.96915035173435        0.40104753943035
C           -4.59597583075701       -0.74250003384914       -0.04745701794300
C           -5.38489890428299       -0.66793740017720       -1.31193737293910
C           -6.53575087650942        0.35222666700325       -1.18712772384478
O           -7.68982710866485       -0.25849696127082       -0.64008694102859
C           -6.09777647806924        1.56829518383567       -0.34965322803310
C           -4.57913888386370        1.72683937509135       -0.29593842427036
C           -3.90915012231848        0.52708261963323        0.39487576149751
C           -4.01886318249664        0.67795214885200        1.91942822040355
C           -2.41948801786916        0.38513377273162       -0.06719859109252
C           -1.56582346603578        1.60587439523735        0.29443508625617
C           -0.12870578387037        1.49315230155424       -0.22581128385304
C            0.55009524001787        0.22484400992145        0.29643497367155
C            0.75187490079332        0.30346844785498        1.81189098520703
H            8.50414475067232        1.80442965547973       -1.19143572684985
H            9.70692983295461        1.36402770219366        0.02194074376740
H            8.06727204543289        1.76573249704661        0.52034759147153
H            8.95604344252338       -0.65557028770611       -1.10764828859833
H            8.12364230764875       -1.95462761307177        0.86456168356429
H            7.84749282660544       -0.43637144085407        1.72538336031867
H            9.48037957175213       -0.89659332685328        1.25536392677179
H            6.82327420481836        0.11145779498521       -1.94837363676741
H            6.67533985831644       -1.43548526677063       -1.12050488326019
H            5.71618477498422       -0.28925922943686        0.86431986120836
H            5.88455478256660        1.26479707238576        0.04523095093718
H            4.24788909403000       -1.09996362113207       -0.93908506209058
H            4.35852395499974        0.44954241292995       -1.76372838215801
H            3.36484458439917        0.27340758803900        1.09509987098266
H            4.10647897108562        2.46497378326591        0.01084040246284
H            2.46890387088947        2.48288625616252        0.63230614334369
H            2.75035907371973        2.29702673113895       -1.10121146428175
H            1.75571665950132        0.02205767071868       -1.47119106055572
H            2.63898032848372       -1.96060915302371        0.60768310971440
H            2.27801721629149       -2.21255935104951       -1.09566656280465
H            0.21774607141114       -3.05070591760486       -0.41347271228653
H            0.44039640850832       -2.44899628617344        1.22746042859282
H           -0.43981817236269       -0.89849580183778       -1.22400273035401
H           -1.71439416285182       -0.90319273835463        1.53087903587165
H           -2.49061401790500       -2.23242689345559       -1.08795013286071
H           -2.14096790208145       -3.05067685975488        0.44811050507930
H           -4.36295118806075       -2.50303163909767        1.26338627448143
H           -5.80419978875380       -1.64455127833117       -1.56286142787347
H           -4.74727646023691       -0.35628293409610       -2.15114926891776
H           -6.85154719034960        0.66839030309213       -2.18754542617798
H           -7.43504979909474       -0.65667998466875        0.20284472110628
H           -6.48318916620575        1.43833098583385        0.66421202908111
H           -6.55099565621133        2.47565972310512       -0.75181755738000
H           -4.34290643689612        2.64364350929392        0.24639364431876
H           -4.19971880777809        1.83278297640133       -1.31414769847896
H           -3.53629833896701        1.59098957040787        2.25817457578151
H           -3.56923177782775       -0.17162303122368        2.42511988193468
H           -5.06491292029004        0.72135013435920        2.21363511168133
H           -2.44925501877486        0.31751248441448       -1.16286641389332
H           -1.54128507295006        1.73427106621855        1.37536748421613
H           -2.01731974476393        2.50142089098397       -0.13538821175089
H           -0.14274423838661        1.46838353086675       -1.31876038529151
H            0.41329693013247        2.38812422570674        0.07741448188518
H            1.33051906866938       -0.54118778638089        2.17224150888980
H           -0.19479587206267        0.31254636482793        2.34267074981697
H            1.28504101079671        1.21475622151558        2.07090979672390
