74
 energy: -85.322799310428 gnorm: 0.000022030092 xtb: 6.7.1 (edcfbbe)
C            9.36860672691064       -0.97109142030951       -0.55400318858241
C            8.26688541064586       -0.20336570646370        0.17693325925400
C            8.68742165687735        1.25317838503252        0.36513727616211
C            6.94764526496163       -0.32315482443584       -0.59549460714467
C            5.73884685221582        0.24075554068599        0.14987195078879
C            4.43599860728622       -0.05168338766583       -0.59491411812005
C            3.19679840704551        0.54770758519331        0.09570923892943
C            3.12594047477597        2.04152050980732       -0.22214792842188
C            1.93064778561431       -0.20841323533766       -0.34638904596884
C            1.99440028447189       -1.71207104607868        0.03179179532653
C            0.56298027770322       -2.15727464630464        0.37805394233914
C           -0.29273834829725       -0.99561233198562       -0.11648064802880
C           -1.73873669748494       -0.92339373063272        0.35786498895448
C           -2.49255633868169       -2.22517223484679       -0.07216566645372
C           -3.84131556056457       -1.87365856222259       -0.57624107011647
C           -4.54117865486764       -0.85791015497519        0.18150362443301
C           -6.00191770579139       -0.92528568041392        0.43291831279185
C           -6.73180703294857        0.00411974214381       -0.57076473938191
O           -8.13107236734828       -0.01656736417912       -0.38123448566831
C           -6.15683441991914        1.41840949460236       -0.46625746732754
C           -4.65180702586379        1.43804394368338       -0.72403593785776
C           -3.87234108240821        0.49781572730372        0.22991539188207
C           -3.93403016743324        1.05871091178642        1.66149118919044
C           -2.40381000134073        0.32890126008274       -0.25360798459833
C           -1.55572330269568        1.58276922563052       -0.01030629252227
C           -0.10492516350593        1.42960621937944       -0.47428668898647
C            0.56108467573491        0.24390564994819        0.22601024335208
C            0.67357721988068        0.49096822157256        1.73276304369540
H            9.53102771240076       -0.54862673953253       -1.54386918222305
H            9.09822029051344       -2.01881894724993       -0.66885109361948
H           10.30427089798597       -0.91795621944513       -0.00121583494502
H            8.12930860784756       -0.65592057628921        1.16643658766549
H            9.65199465523481        1.30545792566670        0.86625526252539
H            7.96477000890737        1.79564220023630        0.96904389586984
H            8.77560709082341        1.74932525644945       -0.59965665312979
H            7.04882321954814        0.18671486775073       -1.55696242820092
H            6.76394313295043       -1.38085247494245       -0.80355417584520
H            5.68958848880827       -0.20776947296008        1.14570061642545
H            5.85940744673280        1.31663084384392        0.27687067736690
H            4.33197003499267       -1.13348376894526       -0.67408821359806
H            4.50156334037314        0.34498347838510       -1.61106255135696
H            3.32082685559497        0.42501732733960        1.17603634672419
H            2.81471040053485        2.19533171850724       -1.25324750519129
H            4.10207779076459        2.50204589877914       -0.09016937366943
H            2.43051517730517        2.55751892754000        0.43232499013545
H            1.87053086580612       -0.12453325019064       -1.43789948432959
H            2.66258944645738       -1.86310342283919        0.87998801235917
H            2.38111038201448       -2.29973581910856       -0.80072660544205
H            0.30699037248477       -3.09953059850774       -0.10483657534954
H            0.43577733208575       -2.29117296705864        1.45244149187150
H           -0.32350395133602       -1.05484777127645       -1.21250459743704
H           -1.77392208414497       -0.85256440051201        1.44644443308066
H           -1.93017592875090       -2.75269968917668       -0.84287077043480
H           -2.55883511927614       -2.87993882433053        0.80202044239023
H           -3.97068221359401       -1.88222036975396       -1.65913648801730
H           -6.26393012340951       -0.59154246041092        1.44329070306050
H           -6.36605360261327       -1.94638226621375        0.30899603249536
H           -6.58463157181052       -0.38363624639316       -1.58471150640866
H           -8.32183040787936        0.32806373903089        0.50115848331205
H           -6.37535785486469        1.81994323119778        0.52619475827302
H           -6.65865265611814        2.05696233684286       -1.19822206709200
H           -4.28719272013486        2.46179949398014       -0.62032809683341
H           -4.46952309596222        1.11736260746403       -1.75265588515154
H           -4.93636616530578        0.97315447139958        2.06762874716752
H           -3.65594034902649        2.10944086317846        1.67511463846588
H           -3.26598371131682        0.50546242818995        2.31597570899897
H           -2.43935209099376        0.16499006309736       -1.33836197955720
H           -1.55230592494977        1.83318982948962        1.04823674766195
H           -2.00342963574705        2.42116019102646       -0.54808173191324
H           -0.08286970041044        1.26768428451934       -1.55536017320535
H            0.41968743233229        2.36200125877874       -0.26889402016581
H            1.27854366470868       -0.27476556190577        2.20783381163868
H           -0.30015567596126        0.49220233500469        2.21163791710890
H            1.13863999184826        1.45554332453990        1.92083264826305
