74
 energy: -85.444272995701 gnorm: 0.000039562187 xtb: 6.7.1 (edcfbbe)
C            7.11379842714545        0.56542306702141        1.21634498821020
C            6.30471084623082        1.51098455056064        0.33036546462446
C            7.23933191289319        2.50675264943798       -0.35685365175185
C            5.48877953944437        0.75005097129698       -0.72152076877446
C            4.37318437268509       -0.11525210361741       -0.13292750276341
C            3.49798641954705       -0.69055241641334       -1.24655323185863
C            2.51899612331504       -1.82910848915722       -0.90335748521226
C            3.29706767748176       -3.05244985484394       -0.40323312528381
C            1.31477888499149       -1.59739644431814        0.03207948856489
C            1.60212710035997       -1.26719190123714        1.51472106581865
C            0.34186382502790       -0.54978225198491        2.04333603045259
C           -0.66861835981598       -0.70359136921638        0.90651924689170
C           -1.90893615248070        0.18518909395250        0.89938370982217
C           -2.71220878953063       -0.02896284613284        2.18274408900895
C           -4.13010605702367        0.42092750325496        2.06076407596123
C           -4.72511468182340        0.73396291494888        0.92020209056927
C           -6.19397395856290        1.03362016579593        0.85491534600800
C           -6.91471730117932       -0.17127122190752        0.21600899745137
O           -8.09237836156723        0.22689498691535       -0.46822876220005
C           -5.99134531693660       -0.86300159601701       -0.79409805908865
C           -5.03909977361916        0.13470812793289       -1.44590667092530
C           -4.02945124130640        0.71437565408810       -0.42530326811040
C           -3.69842448685102        2.16087635964104       -0.82920881956170
C           -2.75417213131959       -0.16441586314509       -0.34106054281523
C           -1.89696574316953       -0.09529093682953       -1.61407119784023
C           -0.65449086274788       -0.98697145827625       -1.54531300064912
C            0.21005189503080       -0.58432911179383       -0.35272085941633
C            0.75694278838750        0.83269725964244       -0.54591747354536
H            7.78070275206009       -0.04395698462626        0.60923042790886
H            6.46283320326338       -0.09457841557731        1.78379764792581
H            7.71677591686971        1.13298820382040        1.92255792424982
H            5.61025031423706        2.07362874815682        0.96621239621258
H            6.67373205605712        3.21143564610563       -0.96317340959277
H            7.94024742471655        1.98287366623523       -1.00408067500171
H            7.80869894496064        3.06969984197676        0.37990850414778
H            5.03876678282399        1.47799929403551       -1.40236145073153
H            6.16270843775191        0.12318114607779       -1.31097616413706
H            4.80972789404105       -0.92513373423334        0.45002193444045
H            3.77954870737197        0.50824834234679        0.53704527172351
H            4.17128829468315       -1.10211105096676       -2.00620406668819
H            2.95739348211309        0.12435607248053       -1.72416582275207
H            2.07298277838569       -2.10879283679299       -1.86821142918170
H            2.64821665825324       -3.92477090787204       -0.35342412109237
H            3.70323365375286       -2.87851327559997        0.58928488750072
H            4.12063838467015       -3.28048816534172       -1.07677006977489
H            0.80819840964937       -2.57274788802171        0.02932721313393
H            2.47961909843206       -0.63726608986440        1.62387832681699
H            1.78971135822657       -2.18365033405261        2.07467480655460
H           -0.01409462310245       -0.99293629519789        2.97300826925017
H            0.54069763295746        0.50588168835549        2.23129093589455
H           -1.03578500399593       -1.73802082161816        0.93613016697132
H           -1.62013235960136        1.23745462945589        0.85559366310141
H           -2.72075568031514       -1.09580063526241        2.43762014034483
H           -2.22855400989822        0.48973126702443        3.01475108300122
H           -4.69304405890669        0.43984706887488        2.98632787430761
H           -6.37828687690506        1.90721337920618        0.22601887232631
H           -6.59639899645732        1.23482581065684        1.84939525035059
H           -7.18821641549732       -0.89252881181056        1.00374599034776
H           -8.65343283486997        0.71694229028273        0.14442893713540
H           -6.61848050276245       -1.33600034069972       -1.55160014563598
H           -5.42125103243413       -1.64107210539811       -0.28438461065237
H           -5.63301585896284        0.94109161966922       -1.87870264838453
H           -4.51208845293339       -0.35363414989192       -2.26440882101111
H           -2.91037950501280        2.57269233599703       -0.20466973465954
H           -4.57571781470629        2.79327349503479       -0.71280858467817
H           -3.38877234467309        2.20780813112253       -1.86991966694439
H           -3.09069477011390       -1.20155077602036       -0.21856498900942
H           -1.57722544017517        0.93065058650652       -1.78548525337667
H           -2.49207015316547       -0.40242855089704       -2.47585224045153
H           -0.96046722979533       -2.03156303884722       -1.44043022362611
H           -0.09463363302141       -0.89778106013168       -2.47956944666115
H            0.00815649176010        1.58273968943284       -0.31092221976922
H            1.05497786706816        0.98315258219606       -1.58079541545122
H            1.61477545867389        1.01071729392478        0.09211951205449
