74
 energy: -85.458775009409 gnorm: 0.000039469956 xtb: 6.7.1 (edcfbbe)
C            9.38323504048608       -0.94129448754355       -0.53666507570399
C            8.27431781732519       -0.17702975039876        0.18693622711544
C            8.69095823255188        1.27968630732894        0.38236955275137
C            6.96136267656591       -0.29649593660388       -0.59623314362222
C            5.74573149397003        0.25864827843341        0.14452776138452
C            4.44817601301478       -0.03205377581489       -0.61009639548027
C            3.20331763334229        0.55363127515748        0.08199323254056
C            3.12624234519741        2.05057569192824       -0.21952388819833
C            1.94090417360819       -0.20154358655318       -0.37163288549509
C            2.01157695391193       -1.71068534595354       -0.01770731712567
C            0.58098339175813       -2.17119960653545        0.31289549335659
C           -0.27969333358101       -0.99914104998156       -0.14663589133445
C           -1.72384456117932       -0.94056101882062        0.34092705880911
C           -2.47814801436167       -2.19131857294539       -0.10874417841385
C           -3.95706496899584       -2.02849583992783        0.00684874556533
C           -4.58732287166384       -0.87332729781742        0.16512340517550
C           -6.08674570960596       -0.84138348356629        0.29411055578038
C           -6.71472818875817        0.13584985172734       -0.70466966144524
O           -8.12688443895756        0.15490164186781       -0.60648271897373
C           -6.09959003428313        1.51783540229346       -0.49679354251813
C           -4.58922415272569        1.45673154281784       -0.69626960720497
C           -3.86871070534860        0.46123892906799        0.23946881428807
C           -3.92700161048613        0.97368770764504        1.68768213760266
C           -2.40253013622685        0.30364945755759       -0.25416377761338
C           -1.55964747247825        1.56382562341437       -0.01514319391518
C           -0.10596505133064        1.42439243618703       -0.47688494644422
C            0.56993576811492        0.23567878576735        0.20919837784870
C            0.68239247600689        0.46492453639138        1.71849386329823
H            9.55316021248097       -0.51638412409357       -1.52420481748739
H            9.11545864198827       -1.98919227038785       -0.65601723687181
H           10.31418550954077       -0.88793603472209        0.02402890593746
H            8.12931496857429       -0.63234018059673        1.17413170180085
H            9.65084456964981        1.33233332641498        0.89237272357333
H            7.96193889258723        1.81960165380873        0.98088455695227
H            8.78702809884459        1.77823560217095       -0.58042440780472
H            7.06770277349831        0.21978024397723       -1.55369826797886
H            6.78260539551263       -1.35344420928495       -0.81224596108398
H            5.69128397226970       -0.19709540278545        1.13684451004683
H            5.86224628084289        1.33393553747666        0.28007620215548
H            4.34987253447304       -1.11341751588495       -0.70141755436471
H            4.51648898243273        0.37596300360121       -1.62153910356104
H            3.32423363379946        0.41931100470368        1.16135098722074
H            2.81932389015922        2.21410573439282       -1.25042672265685
H            4.09907344049717        2.51507709502553       -0.07722468816313
H            2.42419674480572        2.55531539929259        0.43666168833014
H            1.87928469022838       -0.10114992455171       -1.46167467743893
H            2.67541256774823       -1.87033245434197        0.83245861831550
H            2.40780392720038       -2.28250952802296       -0.85673097644471
H            0.32705724125427       -3.09655698656651       -0.20304071917246
H            0.45493614234363       -2.34026776905128        1.38272757927622
H           -0.32087668978671       -1.03860358510168       -1.24327833414173
H           -1.75159347268696       -0.89624776071148        1.43204823413118
H           -2.23124050128530       -2.41393326649950       -1.15360605520494
H           -2.16222156850283       -3.05414908367461        0.48302324921127
H           -4.52948678753651       -2.94622818635035       -0.05483295352438
H           -6.37239660847217       -0.53029662839695        1.30461445688108
H           -6.49624835861399       -1.84045196109496        0.13145502833719
H           -6.51711545219809       -0.20797603959061       -1.72663695755117
H           -8.36265359688735        0.45487163456950        0.28110505129784
H           -6.34043711664181        1.87304250054850        0.50804726046746
H           -6.53562164002278        2.22026629787047       -1.21133123154181
H           -4.17690939429187        2.45553005707819       -0.54787638214908
H           -4.39434622593370        1.16443845184751       -1.73141114948985
H           -4.93730680616768        0.90869691181518        2.08002544557629
H           -3.61507487274730        2.01316631844027        1.74486146737059
H           -3.28689003880497        0.37568360645289        2.33116290218208
H           -2.45076561878475        0.13814399803241       -1.33815525130089
H           -1.55881376208236        1.81327384427696        1.04384971395892
H           -2.00551579636653        2.40228607328711       -0.55304730191090
H           -0.08077532243323        1.27500873423657       -1.55966828338634
H            0.41047038886513        2.35909629361181       -0.26059910300466
H            1.27565277075247       -0.31466871772819        2.18608538062775
H           -0.29285966192133        0.47367723605995        2.19415421940813
H            1.15933905718773        1.42111146746823        1.91917525270573
