  69
       -117.55500904
 C         -7.9743164243       -3.9951089383       -0.0389499524
 C         -6.6666198589       -3.7776545640        0.3444970554
 C         -6.1288909721       -2.5000010099        0.3108267249
 C         -6.8875207190       -1.4187451245       -0.1195046892
 C         -8.2247538505       -1.6452566077       -0.4721658445
 C         -8.7556889221       -2.9214211634       -0.4384271125
 O         -9.0717815399       -0.6318681430       -0.8435483949
 C         -8.5588989188        0.6401217882       -0.8831088921
 C         -9.4172388354        1.6482053280       -1.2814112550
 C         -8.9642994261        2.9550896086       -1.3809325851
 C         -7.6437700887        3.2398180599       -1.0985261726
 C         -6.7796686491        2.2328938893       -0.6962182693
 C         -7.2262689475        0.9246941212       -0.5578071678
 N         -6.3794941222       -0.1162183637       -0.1617885226
 C         -5.0470040955        0.1488307915        0.2035177871
 C         -4.7706560472        0.9888693217        1.2834690345
 C         -3.4676782225        1.2550404704        1.6411190860
 C         -2.4151454137        0.6834372722        0.9225541331
 C         -1.0571252980        0.9755977897        1.3066133524
 N         -0.6689981508        1.7384392616        2.2894365998
 N          0.6680412806        1.7380535455        2.2915326983
 C          1.0587512884        0.9755000282        1.3095023470
 C          2.4174459108        0.6840426823        0.9278632859
 C          2.6936174383       -0.1302690207       -0.1708291157
 C          3.9996048056       -0.3930999440       -0.5253366657
 C          5.0506251262        0.1501061503        0.2122878982
 N          6.3823028826       -0.1179931928       -0.1521484723
 C          7.2467191665        0.9229737028       -0.5086182021
 C          6.8266185936        2.2449575213       -0.5859839792
 C          7.7093997706        3.2515080584       -0.9466373209
 C          9.0227893138        2.9535514075       -1.2477107215
 C          9.4487089631        1.6344518245       -1.2115729369
 C          8.5712959170        0.6266618407       -0.8561827248
 O          9.0575416722       -0.6560762833       -0.8828583603
 C          8.1976770544       -1.6669820433       -0.5357421713
 C          8.7056805055       -2.9528900924       -0.5538257888
 C          7.9107853372       -4.0256156338       -0.1791509472
 C          6.6137127017       -3.7980034690        0.2336665098
 C          6.0987117595       -2.5106836492        0.2505730222
 C          6.8695057432       -1.4292987301       -0.1576567897
 C          4.7725203932        0.9619670061        1.3129311761
 C          3.4688518632        1.2286119708        1.6680285714
 O          0.0016613565        0.4558220296        0.6394716859
 C         -2.6896322162       -0.1577270913       -0.1563349927
 C         -3.9953011100       -0.4216175104       -0.5122968140
 H         -8.3962596007       -4.9870972744       -0.0181006493
 H         -6.0513315374       -4.5987373958        0.6785118577
 H         -5.1117456165       -2.3432038116        0.6338884169
 H         -9.7876971032       -3.0514152336       -0.7221067181
 H        -10.4370211119        1.3868424483       -1.5144763839
 H         -9.6415248138        3.7353473245       -1.6892874440
 H         -7.2697868940        4.2475042987       -1.1918743929
 H         -5.7461173444        2.4679248755       -0.4958930597
 H         -5.5889515373        1.4213116938        1.8393722229
 H         -3.2357798250        1.8955558677        2.4764566953
 H          1.8800789729       -0.5446850006       -0.7472232392
 H          4.2179269976       -1.0133290931       -1.3821615543
 H          5.7988564300        2.4919886352       -0.3716302903
 H          7.3555320151        4.2697670051       -0.9925090466
 H          9.7150105343        3.7334736948       -1.5225122443
 H         10.4614382409        1.3631133441       -1.4629224024
 H          9.7304269089       -3.0916312893       -0.8591043097
 H          8.3143777811       -5.0254184682       -0.1998657292
 H          5.9892989532       -4.6187442628        0.5513842956
 H          5.0898843369       -2.3466252113        0.5953920865
 H          5.5895835399        1.3718920163        1.8873992802
 H          3.2356182665        1.8499879765        2.5175552208
 H         -1.8752725658       -0.5926182717       -0.7163346530
 H         -4.2120877218       -1.0619848798       -1.3544612778
