  69
  -117.155568155300       0.181745246290153      !
 C         -8.9088354942       -3.1506672718        0.7869876051
 C         -7.5952296226       -3.1602353737        1.2100236831
 C         -6.7481913446       -2.1095136216        0.8920513111
 C         -7.2055747095       -1.0245219334        0.1547716020
 C         -8.5308900627       -1.0415053611       -0.2993268062
 C         -9.3720655702       -2.0906242106        0.0222413118
 O         -9.0527970771       -0.0476391416       -1.0886622157
 C         -8.2279609991        0.9973004939       -1.4199259997
 C         -8.7722796406        2.0004503738       -2.2003522421
 C         -8.0124383091        3.1067398145       -2.5496990897
 C         -6.7130539267        3.2090946080       -2.0963189389
 C         -6.1619590705        2.2050614615       -1.3145889412
 C         -6.8986673598        1.0748789514       -0.9836153415
 N         -6.3762646806        0.0469590092       -0.1920847046
 C         -5.0444342565        0.0971402774        0.2593796442
 C         -4.7672535637        0.1490940639        1.6260478812
 C         -3.4639755360        0.1971160225        2.0690643464
 C         -2.4128658474        0.1914610669        1.1497735027
 C         -1.0542769376        0.2350034898        1.6290295722
 N         -0.6641685447        0.3349240327        2.8683616416
 N          0.6728253010        0.3332641190        2.8677394235
 C          1.0616080958        0.2302610159        1.6281691450
 C          2.4192260831        0.1688609786        1.1485139488
 C          2.6910844982        0.0283366632       -0.2128339289
 C          3.9953559104       -0.0506414668       -0.6519384580
 C          5.0485183363        0.0087741604        0.2598607032
 N          6.3773290851       -0.0880513084       -0.1919341088
 C          7.2810130096        0.9595719957        0.0140143041
 C          6.9077584543        2.1561734765        0.6127767216
 C          7.8279764486        3.1776695550        0.7934930781
 C          9.1322479047        3.0258075884        0.3687173506
 C          9.5125455062        1.8502705142       -0.2610356206
 C          8.5982284794        0.8297198952       -0.4458651764
 O          9.0411118406       -0.2864350527       -1.1098432157
 C          8.1456132223       -1.3083301158       -1.2989879846
 C          8.6124824091       -2.4363693355       -1.9481863260
 C          7.7780876149       -3.5259668179       -2.1473905917
 C          6.4824142672       -3.4844900578       -1.6741753356
 C          6.0090693020       -2.3550050529       -1.0238460080
 C          6.8209151334       -1.2415205903       -0.8473688182
 C          4.7752933109        0.1572376657        1.6202248913
 C          3.4730505455        0.2365576260        2.0621652880
 O          0.0031422707        0.1650756015        0.7847304662
 C         -2.6884759802        0.1402179003       -0.2169880846
 C         -3.9941980110        0.0946417419       -0.6573184666
 H         -9.5726168617       -3.9634509752        1.0351731411
 H         -7.2133368357       -3.9873317870        1.7882690144
 H         -5.7192063670       -2.1399113560        1.2141546375
 H        -10.3863132269       -2.0605334367       -0.3420896834
 H         -9.7970468441        1.8986690270       -2.5196248407
 H         -8.4447596860        3.8828115457       -3.1610031237
 H         -6.1152274630        4.0733640645       -2.3411639236
 H         -5.1519924655        2.3086046978       -0.9502791132
 H         -5.5848694162        0.1596681878        2.3311253933
 H         -3.2311855434        0.2465639593        3.1205031974
 H          1.8760058999       -0.0140292265       -0.9194378329
 H          4.2115864931       -0.1545436473       -1.7049218693
 H          5.8875135977        2.2970310502        0.9333324286
 H          7.5105086643        4.0938413714        1.2669206688
 H          9.8529670049        3.8152424999        0.5111218965
 H         10.5174273692        1.7062850211       -0.6243817436
 H          9.6366340381       -2.4432069429       -2.2851209207
 H          8.1499334455       -4.4003057909       -2.6574353665
 H          5.8267612279       -4.3321151534       -1.8008883124
 H          5.0004403566       -2.3458264229       -0.6415709233
 H          5.5937453008        0.1959906271        2.3233337689
 H          3.2427086441        0.3400411255        3.1101614483
 H         -1.8749239957        0.1295225743       -0.9265662929
 H         -4.2125955195        0.0473322069       -1.7139390625
  69
  -117.155460318400       0.162145407458879      !
 C         -8.8322442402       -3.2051447849       -0.2575920715
 C         -7.5227295233       -3.3165208589        0.1631980520
 C         -6.6987480130       -2.2017674474        0.1944939642
 C         -7.1756759907       -0.9529587134       -0.1836023124
 C         -8.4959212541       -0.8577016496       -0.6429222754
 C         -9.3140687508       -1.9720016339       -0.6702251589
 O         -9.0343014737        0.3184449931       -1.1008090072
 C         -8.2280975788        1.4285649917       -1.0964161930
 C         -8.7849231016        2.6073964508       -1.5567233644
 C         -8.0453151120        3.7804692843       -1.5513940701
 C         -6.7541253227        3.7673689664       -1.0646304587
 C         -6.1901707683        2.5872887563       -0.6040403985
 C         -6.9056987972        1.3969904323       -0.6340959217
 N         -6.3700690646        0.1908333385       -0.1720715256
 C         -5.0413761452        0.1215773256        0.2856691865
 C         -4.7730670297       -0.2466402969        1.6047444984
 C         -3.4729642567       -0.3365899102        2.0501590421
 C         -2.4160677452       -0.0593484781        1.1805774739
 C         -1.0603948159       -0.1905116657        1.6517254225
 N         -0.6776233281       -0.5370778282        2.8481966938
 N          0.6590738757       -0.5645755416        2.8476925592
 C          1.0549599049       -0.2338187925        1.6510221169
 C          2.4145797214       -0.1599866729        1.1786358129
 C          2.6971332700        0.2183571262       -0.1342449490
 C          4.0017017374        0.2484803843       -0.5794673767
 C          5.0436735873       -0.1005482746        0.2782061881
 N          6.3726847840       -0.0994126249       -0.1838591073
 C          6.9713997011        1.0785843851       -0.6407046495
 C          6.3228253122        2.3062381069       -0.5974005577
 C          6.9485821897        3.4568349023       -1.0525783099
 C          8.2357064510        3.4022792401       -1.5472029757
 C          8.9092390825        2.1902178204       -1.5660918548
 C          8.2907257560        1.0404873428       -1.1112542494
 O          9.0340784734       -0.1125001281       -1.1292180406
 C          8.4345168187       -1.2603125099       -0.6754020411
 C          9.1899342842       -2.4177146608       -0.7150486604
 C          8.6434876755       -3.6253030229       -0.3072683262
 C          7.3323429392       -3.6673405833        0.1210704251
 C          6.5713165405       -2.5091535267        0.1650589238
 C          7.1139043881       -1.2858665406       -0.2080457378
 C          4.7606877086       -0.4642815135        1.5955123658
 C          3.4586978364       -0.4940549025        2.0437085757
 O          0.0018336386        0.0220304871        0.8377356388
 C         -2.6830488717        0.3202315213       -0.1351424455
 C         -3.9856051764        0.4101577099       -0.5777247523
 H         -9.4784122764       -4.0681981883       -0.2795689203
 H         -7.1256598342       -4.2724906827        0.4674766562
 H         -5.6723887793       -2.3086934192        0.5084681019
 H        -10.3253948053       -1.8531945285       -1.0244598456
 H         -9.8033835837        2.5861813966       -1.9098414195
 H         -8.4871692492        4.6945900632       -1.9147705135
 H         -6.1727852461        4.6758337582       -1.0334601948
 H         -5.1869548603        2.5960835267       -0.2076822009
 H         -5.5953024377       -0.4563735938        2.2723818489
 H         -3.2468608625       -0.6169678859        3.0661854568
 H          1.8888882417        0.4739712336       -0.8026540843
 H          4.2240707031        0.5269607650       -1.5989239999
 H          5.3237986129        2.3670687422       -0.1949265601
 H          6.4186708977        4.3957909546       -1.0110104278
 H          8.7254081686        4.2933324583       -1.9062993631
 H          9.9229001778        2.1154762506       -1.9257446163
 H         10.2040457852       -2.3522962150       -1.0752366061
 H          9.2410023400       -4.5224114348       -0.3389322676
 H          6.8850937298       -4.6019740695        0.4221803827
 H          5.5426004655       -2.5617628156        0.4851215471
 H          5.5731964876       -0.7197948023        2.2591108007
 H          3.2213697847       -0.7715681751        3.0579985406
 H         -1.8649518682        0.5300908456       -0.8075558089
 H         -4.1967231720        0.6901056064       -1.5992063252
  69
  -117.155440803700       0.158831382913046      !
 C         -8.0539887159       -3.7105373482       -0.9577647492
 C         -6.7455748512       -3.6123778499       -0.5302063421
 C         -6.1814509179       -2.3712316834       -0.2772141834
 C         -6.9138556417       -1.2050363030       -0.4599439404
 C         -8.2522591371       -1.3182044237       -0.8596173700
 C         -8.8095609988       -2.5580636712       -1.1121842066
 O         -9.0749586029       -0.2293007480       -1.0002994930
 C         -8.5357384574        1.0081774268       -0.7544104883
 C         -9.3696161714        2.0981300082       -0.9225649898
 C         -8.8890731704        3.3842439463       -0.7276432391
 C         -7.5655476399        3.5701159511       -0.3836182811
 C         -6.7259217637        2.4802783000       -0.2112770075
 C         -7.2005010400        1.1841157668       -0.3685452208
 N         -6.3788391152        0.0629212591       -0.2099522500
 C         -5.0444991402        0.2109566755        0.2105852307
 C         -4.7606050568        0.7842180814        1.4511912047
 C         -3.4556785834        0.9356947829        1.8643903810
 C         -2.4087364851        0.5147187187        1.0412363751
 C         -1.0484834613        0.6844618653        1.4861822842
 N         -0.6535569742        1.2015554253        2.6154115122
 N          0.6831208928        1.1713042837        2.6229036406
 C          1.0668352879        0.6371838716        1.4977350149
 C          2.4226092667        0.4078311872        1.0665493255
 C          2.6917916201       -0.1483469347       -0.1843327684
 C          3.9952172925       -0.3546525975       -0.5829280404
 C          5.0505484056       -0.0118577973        0.2612132624
 N          6.3796384118       -0.2216619422       -0.1481261433
 C          7.2683873569        0.8531724409       -0.2610624946
 C          6.8762215064        2.1682951086       -0.0447999552
 C          7.7826615018        3.2101031862       -0.1693787943
 C          9.0922898958        2.9575397109       -0.5236394488
 C          9.4907002191        1.6542461550       -0.7794368653
 C          8.5896484975        0.6122792375       -0.6602427142
 O          9.0496764206       -0.6429610840       -0.9689653473
 C          8.1661785479       -1.6865159875       -0.8584577113
 C          8.6478170218       -2.9472309999       -1.1594163002
 C          7.8277574483       -4.0585925109       -1.0354907562
 C          6.5320012859       -3.8997501922       -0.5878211709
 C          6.0434065534       -2.6372438990       -0.2877259092
 C          6.8398479722       -1.5094673845       -0.4425467341
 C          4.7793656200        0.5415409137        1.5134455413
 C          3.4783312443        0.7513828000        1.9134721272
 O          0.0053163472        0.3024645677        0.7246981727
 C         -2.6908023730       -0.0599167395       -0.1985761760
 C         -3.9983874736       -0.2094853986       -0.6096341432
 H         -8.4963770700       -4.6729090181       -1.1593705763
 H         -6.1502755520       -4.5004280747       -0.3842331732
 H         -5.1642222579       -2.3124169625        0.0767993395
 H         -9.8414496898       -2.5991587300       -1.4219105186
 H        -10.3924302931        1.9174750871       -1.2120487934
 H         -9.5473609536        4.2281666432       -0.8579149708
 H         -7.1701384886        4.5649276435       -0.2494162850
 H         -5.6895906904        2.6422235896        0.0404960712
 H         -5.5747749067        1.1004651140        2.0858230185
 H         -3.2181378190        1.3696928852        2.8220154616
 H          1.8750891162       -0.4065811244       -0.8416970115
 H          4.2083924024       -0.7740117195       -1.5551378768
 H          5.8518767702        2.3841683365        0.2147834630
 H          7.4501957332        4.2207001863        0.0104491852
 H          9.8027995563        3.7635694056       -0.6156015216
 H         10.4998467215        1.4232144829       -1.0805504950
 H          9.6721806888       -3.0373032475       -1.4836312818
 H          8.2109081140       -5.0375209269       -1.2759411549
 H          5.8880614319       -4.7565827983       -0.4627934905
 H          5.0351250329       -2.5316127300        0.0807283733
 H          5.5995169001        0.7957468461        2.1679495704
 H          3.2503370902        1.1738068604        2.8787586950
 H         -1.8805811200       -0.3775556844       -0.8377620805
 H         -4.2207563221       -0.6421572287       -1.5738203128
  69
  -117.155322246700       0.140104244465525      !
 C         -9.3601382446       -2.5459226954        1.1534037569
 C         -8.0604916242       -2.7170511291        1.5852413852
 C         -7.0579014014       -1.8645075528        1.1485954845
 C         -7.3414730801       -0.8166283422        0.2816028595
 C         -8.6561244064       -0.6775497125       -0.1825881479
 C         -9.6530179233       -1.5284185372        0.2581406431
 O         -9.0179495581        0.2781573331       -1.0979528535
 C         -8.0408169724        1.1323968905       -1.5416225409
 C         -8.4259940680        2.1036705614       -2.4475211950
 C         -7.5064276265        3.0299201327       -2.9154668663
 C         -6.2071864971        2.9892805299       -2.4521827574
 C         -5.8157734414        2.0160607977       -1.5454370687
 C         -6.7145178700        1.0565172037       -1.0960501058
 N         -6.3541668372        0.0602754310       -0.1812544869
 C         -5.0318600711       -0.0325832068        0.2874442221
 C         -4.7538511575        0.1096870557        1.6479748848
 C         -3.4554910489        0.0438517632        2.1024507170
 C         -2.4083609115       -0.1601771645        1.2013336379
 C         -1.0513380222       -0.1793071522        1.6858226537
 N         -0.6600591334       -0.0898468168        2.9256069554
 N          0.6770102450       -0.1078569902        2.9248120043
 C          1.0644122466       -0.2078148386        1.6846955677
 C          2.4214593057       -0.2240571840        1.1993208551
 C          2.6922908614       -0.3535811853       -0.1632784844
 C          3.9943452986       -0.3221855005       -0.6151402016
 C          5.0456139052       -0.1577178092        0.2854020718
 N          6.3717077259       -0.0887399259       -0.1805269539
 C          7.1236944155        1.0785718309       -0.0076988955
 C          6.6104784272        2.2096269096        0.6145051875
 C          7.3821852821        3.3522818236        0.7614508449
 C          8.6745881890        3.3888295293        0.2791373581
 C          9.1910116378        2.2793151028       -0.3730806139
 C          8.4251092707        1.1380264351       -0.5236621118
 O          8.9947463619        0.0960601585       -1.2113921709
 C          8.2423367753       -1.0387242795       -1.3797973695
 C          8.8313190053       -2.0845125981       -2.0660572494
 C          8.1470084149       -3.2772353303       -2.2466308788
 C          6.8797674134       -3.4206524497       -1.7191276415
 C          6.2834003468       -2.3737067678       -1.0327815134
 C          6.9418060150       -1.1609601965       -0.8730668363
 C          4.7745429444       -0.0472926437        1.6497886184
 C          3.4747485670       -0.0805352890        2.1047105024
 O          0.0052149250       -0.2631816669        0.8414673210
 C         -2.6854134610       -0.3158967460       -0.1572211391
 C         -3.9866162926       -0.2561160986       -0.6082597351
 H        -10.1447773960       -3.2019136999        1.4952869584
 H         -7.8110832789       -3.5180786823        2.2637355396
 H         -6.0439740890       -2.0232530007        1.4804179037
 H        -10.6525886077       -1.3797137213       -0.1176612030
 H         -9.4548947202        2.1205341143       -2.7692172764
 H         -7.8146126564        3.7811161732       -3.6251084661
 H         -5.4842627243        3.7168594741       -2.7874665705
 H         -4.8020608101        2.0123406489       -1.1771625871
 H         -5.5647174220        0.2888221192        2.3379637856
 H         -3.2215955902        0.1648159753        3.1478164094
 H          1.8770837381       -0.4637706591       -0.8623601643
 H          4.2081683228       -0.4082932649       -1.6702583537
 H          5.5959735740        2.2041535740        0.9806349080
 H          6.9576490826        4.2134823420        1.2538102207
 H          9.2801949578        4.2736474434        0.3943171377
 H         10.1891419298        2.2805897404       -0.7807604530
 H          9.8304708339       -1.9460205333       -2.4469112226
 H          8.6133718845       -4.0864505357       -2.7857160732
 H          6.3428722021       -4.3497723132       -1.8323306493
 H          5.2998598247       -2.5051529444       -0.6094390493
 H          5.5939641578        0.0630441797        2.3441208023
 H          3.2462171840        0.0044055393        3.1548211571
 H         -1.8769936960       -0.4882744484       -0.8516409355
 H         -4.2061392857       -0.3844174924       -1.6578616476
  69
  -117.155318400100       0.139535115916435      !
 C         -8.5968198703       -3.3518080489       -0.4245329496
 C         -7.2964164278       -3.3931374432        0.0354104267
 C         -6.5458483861       -2.2304645215        0.1226137826
 C         -7.0885527259       -1.0036782426       -0.2384126603
 C         -8.3979964955       -0.9777739332       -0.7362881263
 C         -9.1428986862       -2.1397055832       -0.8192966138
 O         -8.9961125533        0.1752255671       -1.1788772306
 C         -8.2621471302        1.3329611987       -1.1197220619
 C         -8.8782198424        2.4878871629       -1.5646871577
 C         -8.2136760213        3.7037539172       -1.5050664563
 C         -6.9382703084        3.7564464118       -0.9805383311
 C         -6.3148196843        2.6005423901       -0.5353256835
 C         -6.9541639014        1.3701560080       -0.6185733704
 N         -6.3576139793        0.1875343437       -0.1718327906
 C         -5.0337833859        0.1828721085        0.3057739744
 C         -4.7656200794       -0.2010242829        1.6203104570
 C         -3.4681292205       -0.2445672394        2.0803053149
 C         -2.4139225324        0.0938190683        1.2293460230
 C         -1.0587823131       -0.0167548652        1.7078444681
 N         -0.6785861716       -0.3608399840        2.9057985900
 N          0.6579924634       -0.3910406101        2.9075525102
 C          1.0565057913       -0.0645035843        1.7106624746
 C          2.4163203867       -0.0157225395        1.2352004656
 C          2.7053243599        0.3772792177       -0.0719131365
 C          4.0069931401        0.3622566144       -0.5263504904
 C          5.0388085937       -0.0494612027        0.3155676182
 N          6.3617938760       -0.1088799317       -0.1608396331
 C          7.0142265163        1.0430072892       -0.6096211348
 C          6.4370531809        2.3034613818       -0.5221367544
 C          7.1151161791        3.4275516534       -0.9689669275
 C          8.3839792677        3.3122627410       -1.4993606327
 C          8.9870690736        2.0649996466       -1.5634173835
 C          8.3164421893        0.9415113484       -1.1168143088
 O          8.9914848272       -0.2512986974       -1.1808651455
 C          8.3388972341       -1.3736140443       -0.7361840705
 C          9.0247079945       -2.5710272537       -0.8238183562
 C          8.4211958557       -3.7549211427       -0.4271393139
 C          7.1227167830       -3.7320697911        0.0394737071
 C          6.4311825666       -2.5336604381        0.1311075091
 C          7.0322091714       -1.3349942261       -0.2319136626
 C          4.7509701993       -0.4207514810        1.6295731541
 C          3.4521522612       -0.4035121160        2.0876411307
 O          0.0052021773        0.1940860064        0.8957608054
 C         -2.6821270904        0.4982458615       -0.0787152518
 C         -3.9824312733        0.5440924620       -0.5351190429
 H         -9.1858807826       -4.2526669561       -0.4909895298
 H         -6.8493150704       -4.3306517392        0.3278180334
 H         -5.5252084389       -2.2822672461        0.4676049844
 H        -10.1479138346       -2.0743777312       -1.2042095128
 H         -9.8828282039        2.4141692481       -1.9491818224
 H         -8.7014700316        4.5989664430       -1.8566216378
 H         -6.4160648894        4.6978949578       -0.9076291142
 H         -5.3252400698        2.6585737682       -0.1096831307
 H         -5.5857275389       -0.4636769881        2.2715967906
 H         -3.2417232938       -0.5400121039        3.0920330589
 H          1.9036702061        0.6775220220       -0.7296574118
 H          4.2339679577        0.6510413510       -1.5419582420
 H          5.4534487085        2.4098146168       -0.0919586912
 H          6.6406980730        4.3937025075       -0.8926722265
 H          8.9139776502        4.1826163665       -1.8522454161
 H          9.9849263644        1.9419277216       -1.9528351297
 H         10.0303290632       -2.5550574334       -1.2123779747
 H          8.9646480617       -4.6837365474       -0.4966737203
 H          6.6310756035       -4.6464589539        0.3335098707
 H          5.4108373194       -2.5352465691        0.4807476521
 H          5.5568334962       -0.7221985932        2.2818362826
 H          3.2106276580       -0.6887215058        3.0987981258
 H         -1.8662385513        0.7595229913       -0.7356260815
 H         -4.1939535349        0.8414856629       -1.5515873677
  69
  -117.155304394600       0.137482377976749      !
 C         -8.1051122222       -3.7719369290       -0.3575462937
 C         -6.8090488125       -3.6219676338        0.0919653389
 C         -6.2281675472       -2.3641403045        0.1504279000
 C         -6.9318458207       -1.2358377546       -0.2512385061
 C         -8.2583541983       -1.3951467857       -0.6735041275
 C         -8.8321372072       -2.6517042857       -0.7318722242
 O         -9.0512068365       -0.3331711849       -1.0289121068
 C         -8.5001443088        0.9216133430       -0.9560781002
 C         -9.3091163068        1.9819390547       -1.3203333417
 C         -8.8144626011        3.2775578399       -1.3058751012
 C         -7.5021191252        3.4999859446       -0.9415400676
 C         -6.6871146041        2.4402635824       -0.5731724113
 C         -7.1762160700        1.1403058796       -0.5526767784
 N         -6.3793460411        0.0474831831       -0.1977819321
 C         -5.0454280843        0.2351623710        0.2111819910
 C         -4.0026732970       -0.3097530883       -0.5361696148
 C         -2.6950787012       -0.1273331947       -0.1388366586
 C         -2.4109606031        0.5990349538        1.0180124036
 C         -1.0501431356        0.7882927523        1.4548936027
 N         -0.6539780479        1.3329521262        2.5701582062
 N          0.6827359896        1.2948817487        2.5808032557
 C          1.0648887720        0.7320673499        1.4693984994
 C          2.4195715496        0.4863272696        1.0437172527
 C          2.6922476013        0.0237949159       -0.2441136113
 C          3.9944333974       -0.1984284531       -0.6376787657
 C          5.0460687737        0.0247321418        0.2510226265
 N          6.3720523980       -0.2131929452       -0.1494911745
 C          7.3239791702        0.8129847350       -0.1164173657
 C          7.0007304850        2.1181595004        0.2339200927
 C          7.9695447656        3.1098073292        0.2560218884
 C          9.2749107524        2.8190938345       -0.0849863727
 C          9.6060463046        1.5310683039       -0.4766723237
 C          8.6426034013        0.5393201129       -0.5030403001
 O          9.0413970859       -0.6977585442       -0.9417311726
 C          8.0983266749       -1.6929692757       -0.9724756751
 C          8.5204799216       -2.9381344125       -1.4011475031
 C          7.6385199529       -4.0076717155       -1.4243212024
 C          6.3404190796       -3.8254143507       -0.9928089761
 C          5.9120796046       -2.5783271811       -0.5641476658
 C          6.7711938726       -1.4862759556       -0.5732112625
 C          4.7704368245        0.4839201117        1.5403859476
 C          3.4713117455        0.7188536078        1.9323400782
 O          0.0025277370        0.3833561407        0.7039276394
 C         -3.4547799573        1.1430354808        1.7690888107
 C         -4.7598650407        0.9645237982        1.3657684993
 H         -8.5605518964       -4.7481381449       -0.4077854164
 H         -6.2368423884       -4.4810817926        0.4064680402
 H         -5.2209724460       -2.2596243959        0.5222917448
 H         -9.8535474799       -2.7306345370       -1.0680104436
 H        -10.3235741045        1.7703711103       -1.6180345432
 H         -9.4533937304        4.0985708956       -1.5897937732
 H         -7.0961047830        4.4997049190       -0.9441646149
 H         -5.6584326408        2.6272172555       -0.3076891827
 H         -4.2283659574       -0.8692599559       -1.4319855135
 H         -1.8867996846       -0.5434132641       -0.7211793953
 H          1.8798117351       -0.1446945667       -0.9348769555
 H          4.2097625419       -0.5383354914       -1.6398643646
 H          5.9816828712        2.3677845840        0.4836482421
 H          7.6892110756        4.1121998318        0.5402451697
 H         10.0335318305        3.5851382368       -0.0626409910
 H         10.6100501089        1.2733363295       -0.7734979381
 H          9.5484214592       -3.0495280751       -1.7067781190
 H          7.9751914052       -4.9740301578       -1.7644102087
 H          5.6473474030       -4.6523887948       -0.9805402866
 H          4.9007161381       -2.4592353289       -0.2089937212
 H          5.5851137022        0.6438408572        2.2306098611
 H          3.2415309067        1.0711414778        2.9249663435
 H         -3.2158120135        1.6933929189        2.6647442826
 H         -5.5722158487        1.3785430106        1.9440688400
  69
  -117.154794546900       8.015622497921321E-002 !
 C         -8.8629128849       -3.2617824157        0.3170413325
 C         -7.5562062369       -3.3055536723        0.7585857833
 C         -6.7252749156       -2.2065439122        0.6005892781
 C         -7.1929654750       -1.0411405506        0.0070337696
 C         -8.5121623570       -1.0172996655       -0.4647239521
 C         -9.3367012173       -2.1151445684       -0.3031420560
 O         -9.0427226875        0.0676572682       -1.1167627781
 C         -8.2343657523        1.1636446728       -1.2852485393
 C         -8.7882219457        2.2591014550       -1.9213019674
 C         -8.0434266042        3.4153444287       -2.1010955732
 C         -6.7493998593        3.4716635138       -1.6248547166
 C         -6.1885379586        2.3751473176       -0.9875580743
 C         -6.9109221868        1.1997229447       -0.8266560115
 N         -6.3792340320        0.0799355939       -0.1805110123
 C         -5.0461399196        0.0841874773        0.2733273448
 C         -4.7670413726       -0.0082350325        1.6369353539
 C         -3.4627632927        0.0077640183        2.0807065101
 C         -2.4144429709        0.1064623215        1.1638538260
 C         -1.0545221937        0.1316159076        1.6425460031
 N         -0.6618134300        0.2248189111        2.8812282556
 N          0.6754302352        0.2309203952        2.8769092286
 C          1.0610281857        0.1354042787        1.6361739352
 C          2.4183122910        0.0854080664        1.1518879142
 C          2.6885861687       -0.2040329003       -0.1858284652
 C          3.9930444278       -0.2690852587       -0.6279898456
 C          5.0450927198       -0.0365927189        0.2558379313
 N          6.3761917588       -0.1075734289       -0.1990481001
 C          7.1950018013        1.0251265570       -0.1865774723
 C          6.7314497190        2.2707321665        0.2167550204
 C          7.5671127233        3.3773910073        0.2031906288
 C          8.8744620024        3.2594948431       -0.2227187179
 C          9.3442042781        2.0280994835       -0.6552312713
 C          8.5148537518        0.9221087605       -0.6457156289
 O          9.0413676115       -0.2539892965       -1.1184260048
 C          8.2284128490       -1.3595831508       -1.1140555293
 C          8.7785692747       -2.5440058421       -1.5676637924
 C          8.0286174477       -3.7108757041       -1.5654701236
 C          6.7330685774       -3.6857848556       -1.0909080958
 C          6.1757831823       -2.5001003440       -0.6363174373
 C          6.9037148978       -1.3173659043       -0.6594945126
 C          4.7735773683        0.2612648571        1.5912070353
 C          3.4716499331        0.3170477171        2.0385203264
 O          0.0008488360        0.0690105896        0.7952712576
 C         -2.6922564187        0.1915395431       -0.2006950286
 C         -3.9989640135        0.1852270219       -0.6407440586
 H         -9.5141195318       -4.1125251459        0.4402897398
 H         -7.1670436718       -4.1965504228        1.2265618471
 H         -5.7012359092       -2.2601878811        0.9356226235
 H        -10.3463459708       -2.0539649003       -0.6764828793
 H         -9.8079790103        2.1881866388       -2.2641650535
 H         -8.4833184062        4.2641614656       -2.6000478861
 H         -6.1636296525        4.3706774378       -1.7390375529
 H         -5.1823651762        2.4388049434       -0.6036109292
 H         -5.5832013353       -0.0815625277        2.3399743325
 H         -3.2281018640       -0.0475074327        3.1314613761
 H          1.8726686797       -0.3772884380       -0.8712309750
 H          4.2093916894       -0.4949869772       -1.6616891611
 H          5.7070266464        2.3799636027        0.5368308274
 H          7.1812032894        4.3322568952        0.5250414688
 H          9.5292356057        4.1163203115       -0.2324722693
 H         10.3544875664        1.9050679208       -1.0112227816
 H          9.7995021538       -2.5325494208       -1.9141392203
 H          8.4657459018       -4.6296517214       -1.9229573935
 H          6.1431419128       -4.5889233867       -1.0643907435
 H          5.1681906110       -2.4979383569       -0.2508213078
 H          5.5937732331        0.4362278957        2.2712468621
 H          3.2426192933        0.5300606031        3.0701981555
 H         -1.8803101586        0.2626365463       -0.9086160364
 H         -4.2209123271        0.2520711568       -1.6955655132
