141
 energy: -200.085742763289 gnorm: 0.000058094495 xtb: 6.7.1 (edcfbbe)
C            7.58228220874677       -3.02770939080281        1.70436340590715
C            7.14550709844732       -1.84989792080676        2.58812307622162
C            8.29802572408560       -0.84226328295471        2.64052703226580
C            6.87706373532023       -2.34259937662392        4.01796836851142
C            5.86909850687174       -1.24833790618917        2.01663638227348
C            4.73483428876466       -2.06032940493807        1.89222017631107
C            3.54233221874663       -1.60522864152133        1.36646034716092
C            3.48630827834825       -0.29369398806230        0.92807632736895
C            4.59033917763966        0.56255938718931        1.09596132483988
C            5.77716149493661        0.07986102459702        1.62998869921948
C            4.17465395753394        1.86192124481976        0.63849133648761
C            4.82658938554672        3.08396521466751        0.54562998344402
C            4.16026493381464        4.18453902418857        0.03001806063486
C            4.80918629264625        5.55667225517624       -0.08977580628372
C            4.82885004702521        5.97986870696277       -1.56629238026411
C            3.99642551865168        6.56886163780694        0.73133301562970
C            6.25053959311456        5.57251997095829        0.42833693767288
C            2.83887837048883        4.02102441996827       -0.40354161841896
C            2.16990455289420        2.81587685782979       -0.32668355843350
C            2.83759423602821        1.73274164453802        0.21693089108731
N            2.42719633841443        0.41687110500927        0.38308627420689
C            1.23287045152392       -0.13408264791109       -0.07077360443043
C            1.22328142187347       -1.23906108773340       -0.94149908455195
N            2.41848482608536       -1.78347241687262       -1.42206017479057
C            2.82825382083364       -3.09753509380143       -1.26729142276450
C            2.15224529194658       -4.17377395066695       -0.71448019668515
C            2.80524058259116       -5.39099222814717       -0.66014201707412
C            4.10531493396757       -5.53674975820307       -1.13716890380011
C            4.78987526820960       -4.46342999531592       -1.67320776134618
C            4.15289590316065       -3.23130050491256       -1.73773543593452
C            4.55461633517626       -1.93399515660246       -2.20810972766695
C            5.71776682742501       -1.44509100979529       -2.78720153388782
C            5.75995775375561       -0.11833320323500       -3.16913271961626
C            4.65076652066267        0.70820867328271       -3.01106438206779
C            3.48235297690263        0.24272588830013       -2.43823276068078
C            3.45479878970992       -1.07287635977574       -2.00332709813966
C            0.00846041141901       -1.77818472711757       -1.34811176249122
C           -1.20827272144884       -1.24064927238884       -0.94500299865392
N           -2.40119051576652       -1.78744981323767       -1.42853216570218
C           -3.43828053499475       -1.07946896410184       -2.01169495998124
C           -3.46901592553151        0.23643876411919       -2.44549504510949
C           -4.63819350682296        0.69923591602643       -3.01895161427339
C           -5.74475627039086       -0.13029280042504       -3.17958772053074
C           -5.69896726049719       -1.45746949929024       -2.79958515198016
C           -4.53527932107822       -1.94353253335467       -2.21915466495536
C           -4.13099519641749       -3.23993640068538       -1.74850730136586
C           -4.76482327107979       -4.47378359585847       -1.68569837686025
C           -4.07885825985838       -5.54523818210563       -1.14773100235089
C           -2.78053697213024       -5.39591807757009       -0.66705340754239
C           -2.13059951377566       -4.17698982687060       -0.71987715756984
C           -2.80786464019584       -3.10265934109381       -1.27486476832570
C           -1.22169067761618       -0.13537672556703       -0.07466212956027
N           -2.41758680598614        0.41555164080863        0.37471682289151
C           -3.47966702195041       -0.29460081777862        0.91483999656933
C           -3.53789005559054       -1.60618225790853        1.35260044175047
C           -4.73284106950743       -2.06137783725609        1.87299149856023
C           -5.86741339239195       -1.24944147302917        1.99283329952002
C           -7.14617639834230       -1.85069325406184        2.55934021421022
C           -7.57945735725105       -3.02917950550988        1.67477188481837
C           -6.88335245416518       -2.34232749651219        3.99060599441803
C           -8.29895501837514       -0.84308188975366        2.60640493304722
C           -5.77335399024619        0.07899538780533        1.60686553445325
C           -4.58432487866682        0.56151164924122        1.07824939026668
C           -4.16611552745001        1.86152610925165        0.62371768047636
C           -4.80969886378329        3.08412746510025        0.52805564837928
C           -4.13899444568885        4.18894400296718        0.01716914827989
C           -4.86494728897265        5.52545319519065       -0.06188479783048
C           -5.30738842799112        5.93559782020243        1.35083454756852
C           -6.09548105112010        5.37667700058654       -0.96918723139572
C           -3.98878912350022        6.64708792862212       -0.62806042631485
C           -2.82019351750737        4.02550588564763       -0.41202263909938
C           -2.15661455628442        2.81390929241888       -0.33243107089007
C           -2.82588312027966        1.73214052947527        0.20723497861181
C            0.00469134045486        0.39799826797433        0.35521225237555
C            0.00278621327348        1.40232069474868        1.34790092817059
N            0.00141874045138        2.17289576963837        2.19809219325496
H            8.51244214535396       -3.45067475074314        2.07824439189747
H            7.74067548571088       -2.68982027291505        0.68218489172544
H            6.83237808179986       -3.81364279098181        1.69082643401149
H            9.18625001228973       -1.32921639383863        3.03826587778065
H            8.05624203464577       -0.00442504566442        3.29050649944897
H            8.53512348187901       -0.46853821970867        1.64704249339777
H            6.53855773477628       -1.51805325413746        4.64255410527041
H            7.78824203827106       -2.75165553322458        4.44940417205522
H            6.11516354960323       -3.11705523812331        4.03462352221017
H            4.77703439368886       -3.08750765738900        2.21989886784750
H            2.68379168888530       -2.25806000599046        1.31368243801551
H            6.60670446058773        0.75776571787027        1.73793063117126
H            5.84919931384584        3.14794629099815        0.87645538601583
H            5.30591180695484        6.95218375593570       -1.66984468056964
H            5.38730066062960        5.25622496357528       -2.15688763021221
H            3.82387884029372        6.04959413352551       -1.97337253289375
H            2.97710721607319        6.65223171595428        0.36449949800937
H            4.45942189829037        7.55198914621485        0.67759268776450
H            3.95687863756316        6.26114911868958        1.77450181638778
H            6.87930062193206        4.89245850655296       -0.14189682522627
H            6.66042972576004        6.57523039699945        0.32495277286497
H            6.29029828638210        5.30022064049156        1.48053002403037
H            2.30781433170960        4.86275466912268       -0.82060421495774
H            1.15451990318917        2.73482754195345       -0.68708898263253
H            1.15093102622949       -4.06730618027172       -0.32545430710310
H            2.29648531937710       -6.24423165140506       -0.23609058875361
H            4.58312780256166       -6.50340361017193       -1.07932618276297
H            5.80232240523383       -4.57426920637715       -2.03031237989344
H            6.56672915811344       -2.09386363570215       -2.94053577508782
H            6.65755080967621        0.28323978503868       -3.61534464425939
H            4.69918474518626        1.73374289124191       -3.34562748577501
H            2.62093276525012        0.88672207472937       -2.34554680829369
H            0.01004434988082       -2.60221075555858       -2.04600478341668
H           -2.60951720573300        0.88276368630879       -2.35104414076608
H           -4.68970377929203        1.72515888522103       -3.35176800471531
H           -6.64297703869474        0.26949920095865       -3.62606925514147
H           -6.54563836540202       -2.10871716184961       -2.95506570873469
H           -5.77599931178586       -4.58732201006065       -2.04554189107879
H           -4.55422844397666       -6.51317174131804       -1.09113750561778
H           -2.27071443543408       -6.24767708604389       -0.24131396925046
H           -1.13069509524674       -4.06778236888986       -0.32799893677105
H           -2.67926761595355       -2.25915963360306        1.30350926381906
H           -4.77652022170008       -3.08866048339489        2.20012125084850
H           -7.73332129110238       -2.69224224673727        0.65160107881133
H           -6.82980511639342       -3.81539868865270        1.66529231856615
H           -8.51138366271460       -3.45144400172491        2.04502154490730
H           -7.79618293746281       -2.75114708182187        4.41874479775101
H           -6.54732778872320       -1.51732516856231        4.61592920868827
H           -6.12144604507568       -3.11668406790208        4.01075173666625
H           -9.18879244971828       -1.32982467314916        3.00076849563325
H           -8.53198105086125       -0.46998693906530        1.61169175621497
H           -8.05993445491394       -0.00487363208921        3.25697263920212
H           -6.60331514356260        0.75695300081644        1.71148937548489
H           -5.83558154729373        3.15897019822123        0.85239655810987
H           -5.99725861417438        5.21233864487186        1.77645385570030
H           -4.44318092552731        6.00924113559851        2.00830464080310
H           -5.80351387717110        6.90345025525326        1.32153479752481
H           -5.79120157806690        5.07593792820721       -1.96984231748555
H           -6.62441269473785        6.32481282183348       -1.03971708245998
H           -6.78389342769806        4.62964445123181       -0.58418912074131
H           -3.10880532389496        6.80649359230549       -0.00885918452552
H           -4.55819061191278        7.57425969383763       -0.64749281891060
H           -3.67543045562511        6.42577668890521       -1.64597891443757
H           -2.27912109246422        4.85970631227031       -0.82645423087634
H           -1.14021770576365        2.73151334770257       -0.68977988074847
