  141
       -199.93081261
 C          6.9754017871       -2.8210426249        3.6528919402
 C          7.1250893728       -2.1943931376        2.2597390751
 C          7.3671479927       -3.2941201668        1.2159478079
 C          8.3491952997       -1.2754947172        2.2811214231
 C          5.8485076712       -1.4612579308        1.8848405777
 C          4.6451518689       -2.1775298689        1.8640158472
 C          3.4518538077       -1.6135311509        1.4643693161
 C          3.4683658777       -0.2925363633        1.0448840699
 C          4.6478764523        0.4763570512        1.1391765463
 C          5.8325551886       -0.1130418641        1.5475860444
 C          4.2929066770        1.8049525307        0.7148033703
 C          5.0170105025        2.9748403092        0.5619103155
 C          4.3909459879        4.1125811500        0.0684750750
 C          5.1271594752        5.4261277752       -0.1350161070
 C          6.5918888988        5.3548983202        0.3042357417
 C          5.0918804834        5.7906740313       -1.6264244056
 C          4.4364969755        6.5248056764        0.6851820520
 C          3.0328462837        4.0414518039       -0.2699561892
 C          2.2890699128        2.8887685079       -0.1305810778
 C          2.9214627411        1.7622422794        0.3737511668
 N          2.4430608221        0.4844893725        0.5523121474
 C          1.2308712277       -0.0154557746        0.0743520439
 C          1.2138009217       -1.0961083675       -0.7980590354
 N          2.4168771289       -1.6128246327       -1.2979653974
 C          2.8615315910       -2.9055974162       -1.1271449709
 C          2.1910540191       -4.0077574031       -0.6177216033
 C          2.8866967796       -5.1971710716       -0.5088512977
 C          4.2218585884       -5.2922159691       -0.8944864531
 C          4.8990075862       -4.1959332266       -1.3943990532
 C          4.2214545231       -2.9908847951       -1.5113693661
 C          4.6029953567       -1.6778334943       -1.9482696529
 C          5.7827484864       -1.1303605404       -2.4313435650
 C          5.7943966005        0.2039967578       -2.7926802180
 C          4.6407059940        0.9797990613       -2.7141775560
 C          3.4537731358        0.4553912456       -2.2383309286
 C          3.4543553275       -0.8643729424       -1.8132977004
 C         -0.0012675297       -1.6620555098       -1.2257293229
 C         -1.2160514459       -1.0943079717       -0.7995679050
 N         -2.4180345164       -1.6089207909       -1.3039593625
 C         -3.4554159517       -0.8577238220       -1.8159648343
 C         -3.4552764252        0.4649290616       -2.2318937504
 C         -4.6422715142        0.9919917006       -2.7047753046
 C         -5.7955336239        0.2161566722       -2.7891797496
 C         -5.7830902510       -1.1208466901       -2.4379386560
 C         -4.6031076900       -1.6711994715       -1.9586016106
 C         -4.2208905040       -2.9871931432       -1.5313766250
 C         -4.8972179677       -4.1941865797       -1.4264366212
 C         -4.2203115575       -5.2934941802       -0.9331654881
 C         -2.8866178551       -5.1996388996       -0.5419637337
 C         -2.1920601613       -4.0086361599       -0.6396247326
 C         -2.8620450566       -2.9034052241       -1.1431862034
 C         -1.2332186175       -0.0144517324        0.0744958360
 N         -2.4447421430        0.4854890200        0.5533334340
 C         -3.4742668233       -0.2931184644        1.0359396832
 C         -3.4632737713       -1.6169654272        1.4464695861
 C         -4.6605240253       -2.1814255700        1.8338818031
 C         -5.8628408147       -1.4632876132        1.8500738332
 C         -7.1446652580       -2.1973521355        2.2046604110
 C         -7.3709802688       -3.2960039113        1.1562290998
 C         -7.0157343701       -2.8250391135        3.5993049583
 C         -8.3694381986       -1.2790762173        2.2071923762
 C         -5.8408762246       -0.1117485564        1.5271598549
 C         -4.6518385826        0.4783400152        1.1328333780
 C         -4.2906165759        1.8105309349        0.7263315711
 C         -5.0094976447        2.9858505936        0.5919141171
 C         -4.3773211852        4.1296899494        0.1211588877
 C         -5.1051829874        5.4523624605       -0.0503350411
 C         -4.4189588567        6.5188304071        0.8148621013
 C         -6.5757351995        5.3742588560        0.3680815524
 C         -5.0498244878        5.8670516025       -1.5278340492
 C         -3.0193040000        4.0576581288       -0.2175572106
 C         -2.2813212796        2.8989041540       -0.0985219246
 C         -2.9183781257        1.7671383029        0.3881952992
 C         -0.0006423084        0.5638561767        0.5398278717
 C          0.0020394596        1.5027842983        1.5518165733
 N          0.0055931387        2.3057358531        2.3933272323
 H          7.8986643270       -3.3200973089        3.9387985127
 H          6.1738268613       -3.5532147911        3.6759601390
 H          6.7564647030       -2.0511645352        4.3898000626
 H          8.2734739739       -3.8466625511        1.4539650760
 H          7.4784649624       -2.8484277350        0.2301139463
 H          6.5351294796       -3.9909549385        1.1797310024
 H          8.5227696661       -0.8339989520        1.3027679096
 H          9.2310771511       -1.8529757863        2.5503353422
 H          8.2292408879       -0.4826616515        3.0157366982
 H          4.6391200970       -3.2143141089        2.1590736305
 H          2.5380553452       -2.1864517487        1.4761958944
 H          6.7253910002        0.4863428492        1.5889226336
 H          6.0614529853        2.9766425100        0.8210784197
 H          7.0642554352        6.3223952952        0.1479786018
 H          6.6696937376        5.1092501795        1.3605764915
 H          7.1392743427        4.6164892076       -0.2767782028
 H          5.5687208500        5.0091476649       -2.2145290727
 H          5.6237433504        6.7240777562       -1.7967162650
 H          4.0718525514        5.9099462527       -1.9801691771
 H          4.4325696486        6.2582127118        1.7397608603
 H          4.9656962422        7.4679209606        0.5679590046
 H          3.4080132921        6.6699816323        0.3687076064
 H          2.5399148418        4.9176630082       -0.6595214984
 H          1.2463946799        2.8714678766       -0.4026878595
 H          1.1607863990       -3.9376364732       -0.3058320857
 H          2.3856449725       -6.0694182466       -0.1160164342
 H          4.7327457686       -6.2384152198       -0.7963209475
 H          5.9356459661       -4.2722531957       -1.6849172211
 H          6.6705878102       -1.7371247431       -2.5269884507
 H          6.7055711251        0.6503865927       -3.1618796807
 H          4.6710709044        2.0113381673       -3.0321180807
 H          2.5581092000        1.0546539956       -2.2032781906
 H         -0.0013971695       -2.4416775460       -1.9667908147
 H         -2.5602123250        1.0648295843       -2.1912768113
 H         -4.6731508679        2.0260004782       -3.0145067727
 H         -6.7071472233        0.6650782251       -3.1540390118
 H         -6.6706175793       -1.7273212108       -2.5383823409
 H         -5.9327494804       -4.2693325044       -1.7210028980
 H         -4.7302238736       -6.2410230510       -0.8434324598
 H         -2.3864604350       -6.0740801777       -0.1528054193
 H         -1.1630651023       -3.9393779709       -0.3234927947
 H         -2.5508795100       -2.1920722858        1.4605356503
 H         -4.6586213503       -3.2202412896        2.1218398725
 H         -7.4606202485       -2.8494666361        0.1686636890
 H         -6.5418482918       -3.9968385377        1.1361684004
 H         -8.2843125848       -3.8444918213        1.3761015626
 H         -7.9413633759       -3.3286635114        3.8690616696
 H         -6.8126930119       -2.0550968885        4.3406875695
 H         -6.2110211901       -3.5533230011        3.6346602817
 H         -9.2558937317       -1.8579526883        2.4577462675
 H         -8.5246482366       -0.8338739581        1.2274002497
 H         -8.2637899044       -0.4890921566        2.9470050827
 H         -6.7325550903        0.4894686045        1.5668658075
 H         -6.0542135482        2.9874172107        0.8499102669
 H         -4.4340238795        6.2193572484        1.8604681923
 H         -3.3842323617        6.6637652446        0.5191745726
 H         -4.9382748527        7.4698059208        0.7190554326
 H         -7.1172249889        4.6529852141       -0.2393793718
 H         -7.0433104230        6.3470045996        0.2315025759
 H         -6.6682250420        5.1011707660        1.4164208715
 H         -4.0254539194        5.9987323445       -1.8639881028
 H         -5.5796542505        6.8057902312       -1.6730572642
 H         -5.5186033978        5.1062809775       -2.1486342110
 H         -2.5211505808        4.9386546506       -0.5892474283
 H         -1.2385907456        2.8818261007       -0.3700400512
