141
 energy: -199.999622950812 gnorm: 0.000062840394 xtb: 6.7.1 (edcfbbe)
C            6.76874765967819       -2.53534711116472        4.02104519271310
C            7.06474907982577       -2.00885511249472        2.60846389845994
C            7.48603882636094       -3.17134012974241        1.69658381698880
C            8.23765489192257       -1.02809655695656        2.70218748967759
C            5.80897770048991       -1.36709114332107        2.03884850594160
C            4.65751666089046       -2.15045899195500        1.88194988721586
C            3.48583471366656       -1.65751975361075        1.34489207301635
C            3.46473928897500       -0.33374367685093        0.93265547223176
C            4.58815172657565        0.49510393390334        1.14001615551979
C            5.75327553073869       -0.02522021407770        1.67921556777875
C            4.20462935644590        1.81155273620675        0.70004588287098
C            4.87474653186043        3.02219815324031        0.64112478489743
C            4.23224482977380        4.14377322646923        0.12957463467226
C            4.90623070579307        5.50443807389143        0.04333624031676
C            6.33636713601970        5.49042062072514        0.59168651442452
C            4.96305161903846        5.94652934397844       -1.42714249681497
C            4.09168460545522        6.51882377494526        0.86068505558723
C            2.91474294537129        4.00866314763434       -0.33029602206741
C            2.22769416090446        2.81348408236250       -0.28927807184002
C            2.87156467038779        1.70663588590636        0.24446445487840
N            2.44312197482649        0.40199851354788        0.36731280878203
C            1.23517929672274       -0.11594689948738       -0.10771355904958
C            1.21693667443083       -1.20431666809890       -0.96597827591235
N            2.41541787465858       -1.72908833726962       -1.47195389803107
C            2.82775868291670       -3.04134276974048       -1.35873939224062
C            2.16017975257049       -4.13309520905119       -0.82199441017276
C            2.81613353040837       -5.34933044272120       -0.80273175737955
C            4.11168055312438       -5.48074430333011       -1.29753354617452
C            4.78884291735408       -4.39359634281672       -1.81833014381213
C            4.14904208284140       -3.16284284626533       -1.84886620589848
C            4.53978910640085       -1.85314102321616       -2.29443904768434
C            5.69143358717212       -1.34385857580390       -2.87656483478332
C            5.71834213159671       -0.00823943994011       -3.23350326032266
C            4.60454556070921        0.80640233627947       -3.04701852023248
C            3.44780332914802        0.32120351829680       -2.46670651525091
C            3.43473658597813       -1.00382604456960       -2.05601313914301
C           -0.00045671878481       -1.77526464285272       -1.38631420164452
C           -1.21777204830311       -1.20142336961534       -0.96991600529408
N           -2.41583370083344       -1.72157015731291       -1.48149539594717
C           -3.43088306999182       -0.99120653674016       -2.06678515450651
C           -3.43890608508955        0.33556947291531       -2.47196679341108
C           -4.59202321523210        0.82623028973234       -3.05491678318625
C           -5.70703835079976        0.01519731108514       -3.24959553260658
C           -5.68501232736301       -1.32196656739401       -2.89813813214882
C           -4.53715787650112       -1.83659797665200       -2.31322366602974
C           -4.15165025727937       -3.14915430336301       -1.87150371655636
C           -4.79490505130762       -4.37827001256593       -1.84881264568479
C           -4.12284856042328       -5.46945743077301       -1.32986939869758
C           -2.82895787346239       -5.34364539718788       -0.82933579439049
C           -2.16959326914925       -4.12915270523649       -0.84086193809699
C           -2.83202875691343       -3.03323526439600       -1.37553417362214
C           -1.23626324119871       -0.11407099972762       -0.11018259936951
N           -2.44438794219673        0.40375115039312        0.36417255395614
C           -3.46758428404391       -0.33325762419201        0.92519636474589
C           -3.49070884868842       -1.65869846124993        1.33189217311881
C           -4.66364203194845       -2.15257930128975        1.86537451840449
C           -5.81435345150528       -1.36851691498098        2.02426482920024
C           -7.07171226225548       -2.01133764357800        2.58916332884924
C           -7.49443202343050       -3.16732128197249        1.66970024638923
C           -6.77785925839577       -2.54720173683838        3.99865523010112
C           -8.24280274335100       -1.02892980035638        2.68818390370095
C           -5.75655257577178       -0.02515626748885        1.67064223267575
C           -4.59014946835828        0.49607374686762        1.13505277860717
C           -4.20425681616425        1.81410653631709        0.70204414182638
C           -4.87221648739587        3.02624526473226        0.64975925306793
C           -4.22717917356333        4.14978773154727        0.14580327675307
C           -4.89730234141296        5.51298042363828        0.07076402822849
C           -4.08395572123964        6.51475203571699        0.90474522315084
C           -6.33053734131527        5.49666424387960        0.61091132687472
C           -4.94485253954831        5.97301430456477       -1.39448582738278
C           -2.90969625868305        4.01499057892708       -0.31421941192523
C           -2.22492759233234        2.81829472831918       -0.28011543208798
C           -2.87089505161117        1.70956288008247        0.24715408921915
C           -0.00052992858628        0.46332362280199        0.35900088136949
C           -0.00024886793060        1.39491486855294        1.37160419595126
N            0.00064611940730        2.19766336334578        2.21655872870936
H            7.66607113717550       -2.97659286695400        4.44949062427283
H            5.98985037433849       -3.29257411019080        4.00833181826981
H            6.44214074221299       -1.72102400274663        4.66501049468115
H            8.40275462048488       -3.62369070337023        2.06887028511195
H            7.66310601321720       -2.80877970839778        0.68597783960137
H            6.71980602620395       -3.94014201319222        1.65333252667408
H            8.49732052327833       -0.63464020237049        1.72211478214742
H            9.10930240052936       -1.54464449222071        3.09900492142181
H            8.00520667710510       -0.20231414352420        3.37070233805047
H            4.67150793329829       -3.18389501783738        2.19109196874753
H            2.61112340972265       -2.28499642084420        1.26384150794175
H            6.59837058165085        0.62824656376811        1.81347055063294
H            5.89134401413747        3.06861821718715        0.99283970462103
H            6.76300868061708        6.48813872286574        0.51144291037600
H            6.34965307421553        5.20317603823492        1.64051904224391
H            6.96697308326486        4.80940405826868        0.02479566397055
H            5.52743928080404        5.22507247621080       -2.01462164600819
H            5.45238591459823        6.91492852638991       -1.50602059797668
H            3.96826623825814        6.03216855548611       -1.85523514021319
H            4.02023147310969        6.19537452574616        1.89734995079778
H            4.57486204353960        7.49317689946904        0.83401600113699
H            3.08353445636200        6.62758831874806        0.47079904023601
H            2.40499475400913        4.86728658058131       -0.73896304119945
H            1.21557213814362        2.74937413175228       -0.65897189469873
H            1.16198380962566       -4.03373517170936       -0.42433940769494
H            2.31490171563975       -6.21382471538464       -0.39281378013531
H            4.59272264694590       -6.44707332836521       -1.26694580864417
H            5.79727724571258       -4.49558163472603       -2.18934734117984
H            6.54427751503469       -1.98167412046374       -3.05285165267116
H            6.60749774427746        0.40839775191638       -3.68269003417978
H            4.64047640974859        1.83765034633937       -3.36498029493836
H            2.58015372790611        0.95269775078061       -2.35081919159428
H           -0.00007689169591       -2.55656523390563       -2.12630853358996
H           -2.57012763248981        0.96435357920592       -2.34997266099169
H           -4.62402922988542        1.85894064411271       -3.36857791563399
H           -6.59322283715615        0.43594218394133       -3.70081495535593
H           -6.53871537623118       -1.95685597199338       -3.08072245442282
H           -5.80208719602283       -4.47590084665650       -2.22437189282078
H           -4.60661774186073       -6.43458954139196       -1.30535238052216
H           -2.33168653778338       -6.21123542052253       -0.42113707186092
H           -1.17260373705537       -4.03447539651512       -0.43911331923857
H           -2.61659105797603       -2.28682401507966        1.24954626537133
H           -4.67926164756949       -3.18733819055859        2.16996998470931
H           -7.67026149065323       -2.79812646485301        0.66127915639020
H           -6.72940527019858       -3.93707594956125        1.62207481138595
H           -8.41214012712883       -3.62046001289418        2.03856376052277
H           -7.67643724052412       -2.98917018328680        4.42370608897279
H           -6.44999244197932       -1.73755701925918        4.64785206388347
H           -6.00062638961459       -3.30604798659891        3.98189395064929
H           -9.11544286659382       -1.54601217046983        3.08211968675104
H           -8.50170412395920       -0.62966342969304        1.71026478987662
H           -8.00884195111856       -0.20721065787580        3.36118111376976
H           -6.60094883627767        0.62881097203223        1.80683390174361
H           -5.88896688405103        3.07237565618923        1.00108302905301
H           -4.01959134215225        6.17868925080465        1.93786764003566
H           -3.07313056322945        6.62404634840595        0.52192825187526
H           -4.56337757309390        7.49115307588860        0.88693931658861
H           -6.95902634916000        4.82177078104553        0.03439248531651
H           -6.75493571452771        6.49584533798419        0.53712026690008
H           -6.35038271842622        5.20024182995798        1.65707337190299
H           -3.94753935432752        6.06365191467404       -1.81553221042621
H           -5.43328297527164        6.94255386683391       -1.46435318604111
H           -5.50593095425784        5.25914910553881       -1.99426549311191
H           -2.39789360209219        4.87520073581327       -0.71691460530142
H           -1.21267099144587        2.75478420802883       -0.64946942173325
