  62
  -101.613776390700       0.304659191231239      !
 O         -0.5953343733       -2.5841778061        1.4635360292
 C         -0.9415842908       -1.4745165722        1.1147125925
 C         -2.1862738013       -0.8481832255        1.6269967422
 C         -3.3739256217       -1.5727491089        1.7556786171
 N         -4.4772975194       -1.0331938189        2.2350733487
 C         -4.4182759325        0.2395128083        2.5865612700
 N         -3.3517149759        1.0156581839        2.5315924276
 C         -2.2419416133        0.4764005275        2.0624445477
 C         -0.1168864834       -0.6235246262        0.2169766470
 C          1.2646672614       -0.6868180590        0.3507398812
 C          2.0926083754        0.1436063067       -0.3970484748
 N          3.4750624507        0.1021827446       -0.2322862514
 C          4.3003910233        1.2052758837       -0.0929453054
 C          3.9784934155        2.5536082657       -0.0385335527
 C          5.0084784424        3.4585511391        0.1374963490
 C          6.3298623368        3.0398350388        0.2690870100
 C          6.6529076934        1.6976589998        0.2491872788
 C          5.6343044629        0.7706409720        0.0732387636
 C          5.6058766143       -0.6654366950        0.0321043810
 C          6.5918857429       -1.6384499927        0.1255891137
 C          6.2225076775       -2.9648434372        0.0249157389
 C          4.8930751294       -3.3227368558       -0.1847794385
 C          3.8945828989       -2.3715385262       -0.2812832776
 C          4.2556198663       -1.0385109681       -0.1514935764
 C          1.5176195425        1.0299331935       -1.3103401586
 C          0.1478491877        1.0816228514       -1.4654779649
 C         -0.6853051980        0.2599818932       -0.7124294284
 N         -2.0677831207        0.3008583664       -0.9119577710
 C         -2.8697652934        1.4121347100       -0.7321545554
 C         -2.5121263873        2.7089220865       -0.3976396430
 C         -3.5266728518        3.6309056330       -0.2253410391
 C         -4.8642640051        3.2747297442       -0.3772579876
 C         -5.2252995185        1.9813019376       -0.6985701353
 C         -4.2236647701        1.0367457896       -0.8768121702
 C         -4.2301010861       -0.3707720648       -1.1666682639
 C         -5.2384942570       -1.2945335980       -1.4061476198
 C         -4.8865464243       -2.6062116497       -1.6546291328
 C         -3.5502960690       -2.9999970227       -1.6805598263
 C         -2.5288213054       -2.0994844211       -1.4450594275
 C         -2.8802897032       -0.7863321097       -1.1717626122
 H         -3.4278708300       -2.6070627460        1.4442499070
 H         -5.3286347077        0.6864429034        2.9623549715
 H         -1.3666874655        1.1140373401        2.0503623629
 H          1.6839901130       -1.3649811000        1.0772139465
 H          2.9564200001        2.8929170241       -0.1136896771
 H          4.7806821950        4.5132763930        0.1778750576
 H          7.1065621051        3.7777725453        0.4007607045
 H          7.6736277997        1.3697594742        0.3733084223
 H          7.6240556637       -1.3576443904        0.2694834028
 H          6.9721203747       -3.7381242840        0.0985938740
 H          4.6348688685       -4.3670898261       -0.2770103303
 H          2.8718217401       -2.6643102725       -0.4615156219
 H          2.1537188839        1.6519126084       -1.9203742390
 H         -0.2916653258        1.7472796461       -2.1928288209
 H         -1.4774262686        2.9876420523       -0.2642764631
 H         -3.2765951182        4.6473503352        0.0384253628
 H         -5.6281480100        4.0232975639       -0.2319395226
 H         -6.2627481308        1.7023660953       -0.8017840402
 H         -6.2732217803       -0.9890292944       -1.3962520683
 H         -5.6552170655       -3.3413941178       -1.8377265074
 H         -3.3059033305       -4.0307629155       -1.8892202378
 H         -1.4955614294       -2.4107543617       -1.4712489892
  62
  -101.613601987100       0.253316768807829      !
 O         -0.6120275798        0.3946046823        2.9155892196
 C         -0.9496690264       -0.0058020017        1.8212492486
 C         -2.1914414739       -0.7982161716        1.6289820729
 C         -2.2308086780       -1.9611371158        0.8584851285
 N         -3.3311392963       -2.6770110641        0.7203774098
 C         -4.4070051074       -2.2490959976        1.3550606898
 N         -4.4851274330       -1.1783169236        2.1252920981
 C         -3.3902395619       -0.4556668167        2.2591933851
 C         -0.1181036112        0.1751394289        0.6024679853
 C          1.2632749101        0.1170785416        0.7375696800
 C          2.0881861586        0.1646821764       -0.3806708649
 N          3.4722020915        0.0784826889       -0.2386379304
 C          4.4011981676        0.9106386653       -0.8375521758
 C          4.2044770139        2.0239783275       -1.6412750113
 C          5.3223146737        2.7033198593       -2.0878412409
 C          6.6080738874        2.2965018607       -1.7400487622
 C          6.8089372719        1.2060690217       -0.9174540023
 C          5.7006747394        0.5084226033       -0.4558196526
 C          5.5406895521       -0.6258010997        0.4118940818
 C          6.4382534575       -1.4521956185        1.0746692851
 C          5.9422280467       -2.4962468840        1.8297396137
 C          4.5720326043       -2.7301155468        1.9145387914
 C          3.6597785169       -1.9208913645        1.2635739102
 C          4.1508979046       -0.8542680476        0.5252668090
 C          1.5129109840        0.2934310175       -1.6462271409
 C          0.1447091802        0.4139592825       -1.7820789017
 C         -0.6852225741        0.3632098958       -0.6666080774
 N         -2.0647804515        0.5377087639       -0.8040179852
 C         -2.8293927707        1.4396560943       -0.0873843532
 C         -2.4195140289        2.4592761924        0.7581543921
 C         -3.3998249320        3.2330821723        1.3496794621
 C         -4.7521728719        3.0074819191        1.1010253095
 C         -5.1621585130        2.0081067234        0.2411558653
 C         -4.1958338145        1.2160384678       -0.3644977760
 C         -4.2509956487        0.1121225034       -1.2830347426
 C         -5.2932555025       -0.5916334221       -1.8706456447
 C         -4.9893135985       -1.6617322542       -2.6887804657
 C         -3.6686309962       -2.0374341615       -2.9206858287
 C         -2.6141603804       -1.3527594234       -2.3475768556
 C         -2.9148434355       -0.2726578167       -1.5325247083
 H         -1.3484496111       -2.3379375106        0.3562069377
 H         -5.3079793939       -2.8356321183        1.2375420761
 H         -3.4603162228        0.4331871895        2.8713141701
 H          1.6854607589        0.0258200501        1.7260307188
 H          3.2124927444        2.3630172196       -1.8997036715
 H          5.1943146353        3.5714724155       -2.7170405181
 H          7.4556115415        2.8514882937       -2.1127795905
 H          7.8038335708        0.9007451115       -0.6314426939
 H          7.5006874097       -1.2798736435        0.9946071149
 H          6.6221314650       -3.1491198250        2.3556922543
 H          4.2126723263       -3.5640550369        2.4987439066
 H          2.6014368070       -2.1252399735        1.3228664395
 H          2.1470908498        0.3030398497       -2.5190921949
 H         -0.2952819437        0.5527656807       -2.7579821106
 H         -1.3736357904        2.6429757860        0.9518211787
 H         -3.1098479565        4.0287887336        2.0192995647
 H         -5.4872724468        3.6307800019        1.5869550571
 H         -6.2093393090        1.8419170659        0.0415845229
 H         -6.3174562955       -0.3091916004       -1.6809659418
 H         -5.7857268263       -2.2239071698       -3.1520145739
 H         -3.4635853126       -2.8857888837       -3.5557493305
 H         -1.5925473739       -1.6579425603       -2.5182870662
  62
  -101.613570092800       0.244909896242854      !
 O         -0.6052625384        1.8094693619        2.3147012243
 C         -0.9429660960        0.9109909867        1.5728678237
 C         -2.1840224161        0.1281338418        1.8017056090
 C         -2.2232541468       -1.2634384894        1.7036856422
 N         -3.3250704217       -1.9539475433        1.9308952835
 C         -4.4018791872       -1.2683585466        2.2683761786
 N         -4.4792459217        0.0426543985        2.4150267729
 C         -3.3832229871        0.7372103114        2.1795936023
 C         -0.1130161283        0.4553378794        0.4261353699
 C          1.2661027758        0.4295830018        0.5827415594
 C          2.0861215440       -0.0800913310       -0.4188944886
 N          3.4685975776       -0.1057538486       -0.2484213263
 C          4.2430347036        0.9445469620        0.2139307262
 C          3.8700873802        2.2363419086        0.5544971947
 C          4.8627038817        3.1078135532        0.9617183320
 C          6.1972392790        2.7141867769        1.0218004926
 C          6.5774353048        1.4378286454        0.6580135615
 C          5.5974873650        0.5446471185        0.2456398654
 C          5.6345097553       -0.8173435371       -0.2111329406
 C          6.6594757034       -1.7396466927       -0.3735587063
 C          6.3435443110       -3.0084843003       -0.8168048075
 C          5.0236804200       -3.3664522902       -1.0788038052
 C          3.9871046261       -2.4649525451       -0.9248884253
 C          4.3014383220       -1.1797667921       -0.5082269933
 C          1.5055207275       -0.5613827627       -1.5936010077
 C          0.1372787738       -0.5098002209       -1.7684634506
 C         -0.6858006220        0.0066065661       -0.7732085357
 N         -2.0639461721        0.1140475848       -0.9795977030
 C         -2.8127413048        1.2597024532       -0.7838445489
 C         -2.3847788330        2.5578164187       -0.5506555128
 C         -3.3519054418        3.5325766235       -0.3952641822
 C         -4.7093260675        3.2293277347       -0.4791015266
 C         -5.1377813914        1.9425057768       -0.7371803369
 C         -4.1847584841        0.9453432530       -0.8965368197
 C         -4.2600164292       -0.4651631829       -1.1609979036
 C         -5.3152729399       -1.3528206697       -1.3197545222
 C         -5.0301589013       -2.6888635805       -1.5206185349
 C         -3.7153150791       -3.1457026842       -1.5577154240
 C         -2.6483190310       -2.2819193308       -1.4013617142
 C         -2.9299570612       -0.9385221320       -1.2091517624
 H         -1.3392930490       -1.8384298550        1.4567092812
 H         -5.3047128987       -1.8357587523        2.4488948903
 H         -3.4528569604        1.8123035229        2.2746154139
 H          1.6911743027        0.7762410848        1.5115595750
 H          2.8424310236        2.5602482502        0.4967500273
 H          4.5955723593        4.1170310833        1.2372481363
 H          6.9420092476        3.4233142827        1.3499209329
 H          7.6133944252        1.1366133084        0.6880309435
 H          7.6796090433       -1.4667444084       -0.1508189338
 H          7.1256046167       -3.7398948461       -0.9531054667
 H          4.8031101834       -4.3715423757       -1.4059893691
 H          2.9659889829       -2.7628369458       -1.1099104351
 H          2.1369687496       -0.9394258370       -2.3824097230
 H         -0.3051975803       -0.8465753564       -2.6936886002
 H         -1.3350161111        2.8013224852       -0.4898440813
 H         -3.0475145490        4.5507814514       -0.2048374737
 H         -5.4335959905        4.0184772371       -0.3462275849
 H         -6.1888901734        1.7114585227       -0.8133777932
 H         -6.3347112422       -1.0010962970       -1.2776858603
 H         -5.8366732780       -3.3954501867       -1.6437481798
 H         -3.5248733856       -4.1978528854       -1.7052323138
 H         -1.6313414201       -2.6442956025       -1.4152757425
  62
  -101.613364925100       0.197114143718079      !
 O         -0.4321355447        1.8106036219        2.3993771812
 C         -0.8712399303        0.9687273857        1.6413387401
 C         -2.1892559652        0.3320497063        1.8802952670
 C         -2.4148682423       -1.0387611993        1.7519995413
 N         -3.5996052629       -1.5768479153        1.9754226488
 C         -4.5687345404       -0.7624590684        2.3498714859
 N         -4.4600391741        0.5386510921        2.5570395512
 C         -3.2825115625        1.0823458684        2.3222215672
 C         -0.0934872839        0.4864162473        0.4701712407
 C          1.2909810188        0.4515903017        0.6026325952
 C          2.1012802923       -0.0165910561       -0.4251536636
 N          3.4832882228       -0.0845119602       -0.2691136014
 C          4.2936462773        0.8884084482        0.2925166770
 C          3.9689671846        2.1519831808        0.7641708647
 C          4.9921067693        2.9392810272        1.2587286824
 C          6.3114148001        2.4939890432        1.2759858898
 C          6.6454972976        1.2506475624        0.7777268126
 C          5.6340013353        0.4419003853        0.2773104386
 C          5.6260034243       -0.8661858522       -0.3170527316
 C          6.6224420833       -1.7959893510       -0.5820420124
 C          6.2670994003       -3.0027523024       -1.1508865703
 C          4.9350847058       -3.2945855908       -1.4317747834
 C          3.9267658786       -2.3844019191       -1.1754101316
 C          4.2810068369       -1.1550865317       -0.6384586829
 C          1.5055708149       -0.4258662382       -1.6205269666
 C          0.1348726430       -0.3881963018       -1.7631863424
 C         -0.6829263460        0.0605732887       -0.7291459946
 N         -2.0670826507        0.0859469766       -0.9233605245
 C         -2.9070830959        1.1689413072       -0.7560706136
 C         -2.5919739189        2.4921472999       -0.4869781945
 C         -3.6370667365        3.3891111980       -0.3723897717
 C         -4.9613315653        2.9852390724       -0.5269624214
 C         -5.2771414694        1.6727536502       -0.8160644093
 C         -4.2448418626        0.7527623241       -0.9389661148
 C         -4.2011079918       -0.6553495384       -1.2221202954
 C         -5.1756504255       -1.6180409181       -1.4483980337
 C         -4.7793111664       -2.9246640580       -1.6524189264
 C         -3.4331008440       -3.2802219315       -1.6251517767
 C         -2.4453349262       -2.3406829861       -1.4014546889
 C         -2.8385837962       -1.0253296359       -1.2086867924
 H         -1.6203311730       -1.7227659965        1.4811313486
 H         -5.5410217280       -1.2053936332        2.5183567647
 H         -3.1965975876        2.1505815639        2.4675064196
 H          1.7237692292        0.7629673977        1.5401278101
 H          2.9556079121        2.5211916918        0.7408451114
 H          4.7609730554        3.9233715734        1.6381604901
 H          7.0808417030        3.1372069385        1.6753934569
 H          7.6697534257        0.9103795450        0.7718173338
 H          7.6515717901       -1.5761108271       -0.3426030422
 H          7.0263523485       -3.7376774924       -1.3711344161
 H          4.6812819406       -4.2548344485       -1.8554739491
 H          2.8965168769       -2.6381268399       -1.3739347304
 H          2.1255819045       -0.7437898489       -2.4438824454
 H         -0.3218111531       -0.6880025939       -2.6943543669
 H         -1.5673877990        2.8105743099       -0.3652569741
 H         -3.4213996781        4.4249635275       -0.1571936737
 H         -5.7495751165        3.7149171726       -0.4225454540
 H         -6.3028367777        1.3633069569       -0.9444313663
 H         -6.2200940064       -1.3463726134       -1.4553072722
 H         -5.5216261867       -3.6883899311       -1.8274514385
 H         -3.1549461444       -4.3123967056       -1.7761433815
 H         -1.4036974902       -2.6242429223       -1.3671965238
