69
 energy: -116.155040244879 gnorm: 0.000059629413 xtb: 6.7.1 (edcfbbe)
C            7.55438819957796       -2.97759375293220       -2.22808597449692
C            6.17549991747773       -3.03436172519006       -2.27254751611848
C            5.41281428666346       -2.17602854707732       -1.49540616091766
C            6.01712090059989       -1.25123091113124       -0.65235565828320
C            7.41663737659720       -1.17932667876470       -0.64025171736492
C            8.17336895696223       -2.04054055243346       -1.41408317540170
O            8.10315450652287       -0.25311726076216        0.10915077610723
C            7.36451270863605        0.58636056391544        0.90870428305588
C            8.06628872189106        1.47592002719625        1.70220500805088
C            7.39070682083628        2.33404064477173        2.55737185972472
C            6.01273132832706        2.27855661049854        2.62867848037492
C            5.30515026788589        1.38823577627637        1.83582043926435
C            5.96470328776095        0.54850842855382        0.94610768272702
N            5.27856284137774       -0.35793904575271        0.13094421653290
C            3.87158216544011       -0.39786472355885        0.14427792263571
C            3.21445648089995       -1.51906846555558        0.62283715994500
C            1.81791342876365       -1.62553111301872        0.67347714301915
C            1.06574519223522       -0.56706222710611        0.22080267769885
C            1.73273959055849        0.57518465430267       -0.28352902233676
C            0.83105803111361        1.56931178287259       -0.73362957820084
C            1.33196999789266        2.72970832702411       -1.27079105302205
C            2.72825005463412        2.87449587012450       -1.35499155097292
C            3.60526793215901        1.91220112858197       -0.91166754192793
C            3.12227747400106        0.71157198268891       -0.34429148513720
C           -0.49932328186481        1.03451361860221       -0.49083645250662
N           -1.66112877447095        1.56990807806829       -0.73780568584720
C           -2.73692794440576        0.81514352517720       -0.39122643547742
C           -4.02633302238636        1.31350593300354       -0.63343103625771
C           -5.14627406667882        0.59028180458148       -0.29220154989740
C           -6.47656876190353        1.12287854546150       -0.63353667019711
C           -6.82459727832047        2.43735528919539       -0.32728271874429
C           -8.08306633619023        2.89314883851356       -0.68273802978349
N           -8.97988578462498        2.15066104485782       -1.31162224706909
C           -8.64495482460765        0.90770684865883       -1.61794516639026
C           -7.41853984087868        0.34556013952672       -1.30596701392515
C           -5.00262629501501       -0.67413060826801        0.33810251325551
C           -6.17779053056002       -1.42679970670341        0.81029611785570
C           -7.15079439883094       -0.82273279011803        1.60495853483093
C           -8.22029861481498       -1.58579391486580        2.04224432285890
N           -8.37523940747344       -2.86637105493825        1.74710699301260
C           -7.44717132418102       -3.44351977489400        1.00105052707756
C           -6.33385742920585       -2.77944021842202        0.51369821777274
C           -3.74612241647698       -1.18710108651722        0.56348694807934
C           -2.59306339026008       -0.47114783491193        0.20485133852217
N           -1.37363589420741       -1.01943283791212        0.44419833596921
C           -0.35251604335886       -0.28352651200921        0.10229962129598
H            8.15301697135527       -3.64553006309731       -2.82707871842756
H            5.67840495333628       -3.74438485819750       -2.91542509834906
H            4.33672145437095       -2.21988273487023       -1.55244148238176
H            9.24778088619808       -1.95535131292795       -1.36977940000013
H            9.14303324847698        1.47789804443242        1.63759925505462
H            7.94635284834244        3.02735785058423        3.16876323674972
H            5.47398331598110        2.92424812708374        3.30492820191361
H            4.23016490593280        1.34521943010509        1.91151076973401
H            3.81114163831417       -2.34405073852558        0.98515856819348
H            1.35542036378319       -2.51543944611547        1.07074808202470
H            0.67817591668283        3.51120073711265       -1.62562665087496
H            3.12386675298966        3.78148920835303       -1.78772609857344
H            4.66931053104891        2.07352624583975       -0.99906712790797
H           -4.11398626601310        2.27397027591429       -1.11872827041487
H           -6.13223040104873        3.08050869589730        0.19408354807450
H           -8.39438645925625        3.90447209690676       -0.45414584757990
H           -9.40156641410965        0.33559151773151       -2.13941520373129
H           -7.19363868276874       -0.67052068985551       -1.59101592221528
H           -7.06666887028207        0.21572529233302        1.88582494364887
H           -8.99588207334450       -1.15229242780936        2.66060150226600
H           -7.60888181963573       -4.49199098340236        0.78555550054383
H           -5.60890588523988       -3.29345329815980       -0.09874697526495
H           -3.61741072318562       -2.14340408895704        1.04797350811583
