69
 energy: -116.102926505081 gnorm: 0.000077808017 xtb: 6.7.1 (edcfbbe)
C            7.43012826057762       -2.08465900167360        2.77863058999628
C            6.04691700468674       -2.03291311129783        2.85707643714846
C            5.32521104610566       -1.22060725299683        2.00246281832667
C            5.97686142974140       -0.44737056111990        1.04264444357549
C            7.38207414768500       -0.48844869337494        0.98748691121758
C            8.09715526506361       -1.30597667538098        1.84791727116197
O            8.09502738567909        0.27125148683684        0.10271960874403
C            7.39948209391758        1.08421644162103       -0.74798624982782
C            8.13347993679454        1.85444155978027       -1.63568119658346
C            7.48473141159221        2.68266421969206       -2.53599889754134
C            6.09928583865057        2.72879195027459       -2.55571334893353
C            5.35880246442264        1.96446555696965       -1.67323174212504
C            5.99344064393142        1.14104774345261       -0.74427517824824
N            5.28504983180014        0.36814051576654        0.16165860588794
C            3.86542995934540        0.39940333714596        0.18101109263681
C            3.21049973470284        1.52483367560864        0.67313436995942
C            1.82556314425108        1.63584295469461        0.72428012352850
C            1.05992140039566        0.56860093370661        0.25907926747704
C            1.73632040381242       -0.57768100146059       -0.24047449740758
C            0.83465528130888       -1.57378830908236       -0.67531561929473
C            1.33915839894868       -2.75434247756120       -1.19792897437662
C            2.72612257532217       -2.89813822614374       -1.27393043816889
C            3.60878579103480       -1.92161351503586       -0.84856091475323
C            3.12537118613682       -0.71309597525291       -0.30438687743889
C           -0.48351550395409       -1.04394835100762       -0.44243417264123
N           -1.66148213885811       -1.54600471258415       -0.66071771891845
C           -2.75513857842580       -0.82563021780582       -0.35123452207416
C           -4.03645437706722       -1.32377726783968       -0.58147836000196
C           -5.17320113147421       -0.59176633318473       -0.27741308429393
C           -6.48932861457548       -1.14544395921760       -0.61602158656605
C           -7.45801062141692       -0.38551580188896       -1.27493134177378
C           -8.67325458451966       -0.97078102850584       -1.58156977998393
N           -8.98053745915732       -2.22512983051795       -1.28733630433283
C           -8.05908416624620       -2.95258496494803       -0.67392764742959
C           -6.81013665072968       -2.47245908832568       -0.32317242360489
C           -5.03281175273469        0.69120021623036        0.30479258794493
C           -6.20357053794955        1.46893727198968        0.74052244925081
C           -6.33980679532888        2.81580833466600        0.40596319362733
C           -7.44997308579555        3.50706343978963        0.85939696459941
N           -8.39628547797514        2.96354708754190        1.60885026229858
C           -8.26077578739523        1.68898982430728        1.94036734545496
C           -7.19600269247165        0.90110863823303        1.53928973859273
C           -3.77443701935637        1.20898816370878        0.53332977710111
C           -2.60914516367344        0.49354711972577        0.21890400920860
N           -1.39907133772021        1.00281936493869        0.44275957697004
C           -0.33057062587681        0.29565314764775        0.13943443887957
H            7.99134512570929       -2.72148208156034        3.44362032294385
H            5.52264757840032       -2.62669372861870        3.58937327702787
H            4.25009891255280       -1.17825444826514        2.07125923783805
H            9.17272253093501       -1.31379428253049        1.77172141235098
H            9.20917451302624        1.78609647515297       -1.60498132801106
H            8.06096577539463        3.28177635053196       -3.22280587629864
H            5.58777575354037        3.36154866780952       -3.26406638252720
H            4.28134004439838        1.99595083071582       -1.69777260387794
H            3.81454564320899        2.34483544545690        1.03602457568080
H            1.36154422040149        2.52604201123403        1.11848478095108
H            0.68338837107582       -3.54034645431402       -1.53925122848468
H            3.12654061952725       -3.81431674067249       -1.68384216195674
H            4.67219392992529       -2.09048628321531       -0.93355133339511
H           -4.12290325330859       -2.29746264090091       -1.04014593668034
H           -7.25891346544579        0.63720891628660       -1.55576652440121
H           -9.44616735568787       -0.40983371315367       -2.09172455033049
H           -8.34530613219781       -3.97334920706341       -0.45332854389981
H           -6.10212006795009       -3.10636771616131        0.18878378725568
H           -5.60111114186084        3.30358056765928       -0.21180493332802
H           -7.59527215493971        4.55110374973404        0.61207468242769
H           -9.04988810048814        1.28263029121206        2.56026962581316
H           -7.12955151805081       -0.13065236292024        1.84870995816434
H           -3.65851932882293        2.17813882444264        0.99513937687614
