43
 energy: -65.068797771142 gnorm: 0.000047528105 xtb: 6.7.1 (edcfbbe)
C           -2.38493647465456        3.60560863064729       -0.39858368953072
C           -1.00077815409399        3.64669586636428       -0.49980691422133
C           -0.26746329389272        2.47569237535780       -0.42020160116705
C           -0.89241116739125        1.24987373219690       -0.24496904013871
C           -2.29083417764377        1.21308783896292       -0.15356242902569
C           -3.02775246598652        2.39760818157270       -0.22785776527465
N           -2.93866155450823        0.01228487067722        0.00160670047691
C           -2.30157049139489       -1.20341729333819       -0.03801488154444
C           -3.04872130331480       -2.38316658942561        0.00181582936774
C           -2.41633111704999       -3.60746883682970       -0.05035536102279
C           -1.03244385313686       -3.67021264301306       -0.14538814307099
C           -0.28902436532174       -2.50341726920439       -0.17860312666893
C           -0.90354724778426       -1.26111602956597       -0.12452113826216
C           -0.06753722403813       -0.00546450403992       -0.09752229633820
C            0.70871186664674        0.05347123430865        1.21232709471755
C            0.22853063205030        0.10247288703046        2.48292102163528
C            1.13643649068641        0.15445153437861        3.55689885525819
C            2.52622074747440        0.15395820013061        3.31529138973127
C            3.03399393012570        0.10257957020409        2.05096446258498
C            2.13283465769283        0.04691874003110        0.94110023767683
C            2.34208624401774       -0.01980414091956       -0.42721855867224
C            3.53443047730763       -0.05754647865195       -1.21709686264944
C            3.42675072919573       -0.12998276176032       -2.57557663085071
C            2.17390918042235       -0.16776105126052       -3.21886916538230
C            0.98499613619752       -0.13019280341119       -2.46362068804084
C            1.06337069775652       -0.05773002939082       -1.10900141478117
H           -2.96037668138953        4.51733657570139       -0.45481032968395
H           -0.49483685036088        4.59017668617939       -0.63687438589611
H            0.80975681659192        2.50581936264428       -0.49219539345339
H           -4.10510394889765        2.35483575376328       -0.15332670861219
H           -3.94842546300187        0.01910643977679        0.05437659388370
H           -4.12566395489657       -2.32406624491340        0.07124431057489
H           -2.99961227743428       -4.51540645493904       -0.01888395473041
H           -0.53472497670298       -4.62692986339510       -0.18910582252766
H            0.78803062684714       -2.54932740979596       -0.24470722950816
H           -0.83478377251524        0.10370748433436        2.68071878949226
H            0.76887403797253        0.19541295186519        4.57018202359526
H            3.19625657970997        0.19531577530330        4.16349456944100
H            4.09874485863137        0.10083803490525        1.87103898058018
H            4.49721678680728       -0.02952285573387       -0.72898577460523
H            4.32020142372877       -0.15987920353747       -3.18480184983887
H            2.12529738461485       -0.22448188140623       -4.29497597276038
H            0.02840617376502       -0.15886255054856       -2.96755003893811
