43
 energy: -65.179207735467 gnorm: 0.000033735951 xtb: 6.7.1 (edcfbbe)
C           -2.41376867519770        3.61909421827386       -0.00011534825970
C           -1.02929970659014        3.67322781925671       -0.00016405705424
C           -0.29837085127703        2.49787120012942       -0.00012315778544
C           -0.92647449978350        1.26183693526878       -0.00003526725783
C           -2.32280293951157        1.21157237724836        0.00001496663426
C           -3.05698654254021        2.39771944162215       -0.00002652764454
N           -2.97538499500026       -0.00009265880036        0.00010779415032
C           -2.32272315132071       -1.21171470168649        0.00011732065840
C           -3.05682869103512       -2.39791013498794        0.00017037118019
C           -2.41353084296049       -3.61924275518738        0.00017904357945
C           -1.02905842009553       -3.67328515527043        0.00013710547702
C           -0.29820701637316       -2.49788050893521        0.00008541871029
C           -0.92639142097674       -1.26188732698772        0.00007364344889
C           -0.09068989589781        0.00000286905565        0.00000694317008
C            0.87189966655997        0.00008734419713        1.17274984714734
C            0.57645861703461        0.00015703687687        2.51827651354731
C            1.62572164986913        0.00023036311824        3.42832709325685
C            2.94246235881756        0.00023382141353        2.99290796398272
C            3.24446492053670        0.00016651294112        1.64003711419276
C            2.20169210352971        0.00009359763258        0.72783089237525
C            2.20166563081472        0.00002159780734       -0.72790109479652
C            3.24440396373801       -0.00000293586495       -1.64014674296821
C            2.94235006567834       -0.00007192256849       -2.99300616686254
C            1.62559302927821       -0.00011583830621       -3.42837605138695
C            0.57636452092796       -0.00009409156055       -2.51828584351078
C            0.87185693485752       -0.00002529047383       -1.17277056997072
H           -2.99381484029122        4.53029268213650       -0.00014861831398
H           -0.52060208620272        4.62540227928174       -0.00023322024757
H            0.78173710921832        2.53561286366169       -0.00015841208318
H           -4.13706088605307        2.34813818155765        0.00001155096527
H           -3.98416719648949       -0.00012587845658        0.00013008127836
H           -4.13690630012780       -2.34839992159935        0.00020262164977
H           -2.99351713144795       -4.53047928087212        0.00021782638999
H           -0.52029732732026       -4.62542564173057        0.00014302712723
H            0.78190311009809       -2.53555292706893        0.00005027883783
H           -0.44921866228650        0.00015589438049        2.85865675149015
H            1.41347418733974        0.00028726568764        4.48772319313225
H            3.74333329274517        0.00029104121552        3.71852715760384
H            4.27179695529549        0.00016987910578        1.30623734025852
H            4.27174866028221        0.00003007016028       -1.30638599310156
H            3.74319371000884       -0.00009277322457       -3.71865546450483
H            1.41330563477101       -0.00016837408228       -4.48776412997463
H           -0.44932604263626       -0.00012917435635       -2.85862619451068
