43
 energy: -65.179192373864 gnorm: 0.000038016025 xtb: 6.7.1 (edcfbbe)
C           -2.36008302995111        3.63821232798412       -0.10391041501217
C           -0.97580225437732        3.68131466955503       -0.14142192835246
C           -0.25328447357109        2.50088922751444       -0.12138926051230
C           -0.88963885138636        1.27035506985600       -0.06625149438007
C           -2.28596887642510        1.23127612589685       -0.03046745596602
C           -3.01163166445850        2.42242757046860       -0.04997618495253
N           -2.94683409175772        0.02529664987776        0.02635959637099
C           -2.30492503698511       -1.19142775400495       -0.01709101934829
C           -3.04900210272340       -2.37130583071421       -0.02384886758345
C           -2.41638928669969       -3.59755264877125       -0.06449554463010
C           -1.03292233382026       -3.66261132830763       -0.10120343967567
C           -0.29215831690498       -2.49340559262488       -0.09388785983018
C           -0.90942088029055       -1.25266805789527       -0.05200855917579
C           -0.06371677519887        0.00250141495516       -0.02725525105414
C            0.84139894649107        0.00192236700783        1.19151065760869
C            0.48131024080443        0.01268201816941        2.52117100931620
C            1.48537380311777        0.00861227934026        3.48080901209548
C            2.82151448255142       -0.00559237808541        3.10946230675131
C            3.18835780988122       -0.01635623392673        1.77280375088044
C            2.19089801629390       -0.01269610616941        0.81127517442284
C            2.26121706450618       -0.02266455126154       -0.64274649253428
C            3.34688978609392       -0.03969406231988       -1.50327795356672
C            3.11066662984373       -0.04744446293520       -2.86917367344139
C            1.81651265145761       -0.03840437589618       -3.36761544827603
C            0.72440278837979       -0.02125984282703       -2.50955958597930
C            0.95414960187607       -0.01344702684226       -1.15123947483260
H           -2.93353838323889        4.55346300240390       -0.11759888443002
H           -0.46045551035226        4.62894802016706       -0.18389116576604
H            0.82665742396033        2.53074119635858       -0.14724217453720
H           -4.09169088798330        2.38121005445044       -0.02165913294834
H           -3.95560798588589        0.03325061217350        0.03400411867401
H           -4.12828801939592       -2.31299367087116        0.00368237857137
H           -3.00397966134959       -4.50388949777941       -0.06847030808310
H           -0.53241153409052       -4.61858155043365       -0.13335369542950
H            0.78723586355434       -2.54004108713163       -0.11955289405351
H           -0.55945156854281        0.02372129437952        2.81179233190652
H            1.22235021389939        0.01659237594587        4.52875954401189
H            3.58627255182110       -0.00845683009616        3.87303556549143
H            4.23057501935184       -0.02751052676633        1.48906116826306
H            4.35679452884563       -0.04707050734205       -1.12010140434054
H            3.94529499770374       -0.06094947557886       -3.55552354829544
H            1.65566970671290       -0.04488421001214       -4.43597662464183
H           -0.28346025605425       -0.01455561231323       -2.89959540784534
