  105
       -141.03926632
 C          1.7632449697        3.7850672340        3.2136375206
 S         -0.0156226955        3.4921456082        2.9797709280
 C          0.0053914874        2.0132680397        2.0288472607
 N         -1.1740517415        1.5363103506        1.7262758253
 C         -1.2198128591        0.4164592102        0.9286106228
 N         -2.4814002681       -0.0339847409        0.5715219545
 C         -3.4937295440        0.7453572155        0.0762968884
 C         -3.4907743702        2.1168995036       -0.1333704864
 C         -4.6264361527        2.6995530461       -0.6478851324
 C         -5.7635071979        1.9400906281       -0.9623618180
 C         -6.9836114708        2.6506556232       -1.5272669795
 C         -8.1496482661        1.7015830152       -1.8221732573
 C         -7.4675205093        3.6947538197       -0.5098337881
 C         -6.5947175014        3.3456258723       -2.8408250299
 C         -5.7469387320        0.5677186430       -0.7478263174
 C         -4.6185897750       -0.0671078434       -0.2309238166
 C         -4.2571073163       -1.4254912769        0.1262287613
 C         -4.8754541459       -2.6912291434        0.0994610143
 C         -6.2706540485       -2.9101410419       -0.4642725397
 C         -7.2764662880       -2.1418654126        0.4103023694
 C         -6.7163345983       -4.3790250371       -0.4536659671
 C         -6.2880417812       -2.4677012979       -1.9372228152
 C         -4.1603022219       -3.7580140099        0.6323422387
 C         -2.8977747330       -3.6268686438        1.2016991845
 C         -2.2646100631       -2.4033084290        1.2166856562
 C         -2.9342806561       -1.3327456857        0.6474454387
 C         -0.0455582906       -0.1496544677        0.4125126683
 C         -0.0762894296       -1.1316808691       -0.7182372991
 C          1.1513494379        0.3825121937        0.8996357486
 N          2.3990191786       -0.0926165122        0.5170610890
 C          3.4303634458        0.6748982766        0.0384533531
 C          3.4575422047        2.0479827324       -0.1553360478
 C          4.6065724984        2.6152649717       -0.6572851459
 C          5.7303738272        1.8380311494       -0.9750258492
 C          6.9689480516        2.5315023445       -1.5216102411
 C          8.1155657326        1.5619223510       -1.8238518006
 C          7.4693957216        3.5495296395       -0.4862960452
 C          6.6037318415        3.2542444211       -2.8265220342
 C          5.6822402945        0.4643941483       -0.7836585498
 C          4.5378823692       -0.1550206959       -0.2811966736
 C          4.1451716269       -1.5119320855        0.0435728969
 C          4.7333771988       -2.7913407237       -0.0188582265
 C          6.1203866143       -3.0279835611       -0.5958010257
 C          6.5286377545       -4.5073347311       -0.6321443620
 C          7.1488556628       -2.3126008926        0.2972804893
 C          6.1433303351       -2.5419765064       -2.0549720625
 C          3.9950913825       -3.8540914928        0.4878159749
 C          2.7371409457       -3.7074751511        1.0641173139
 C          2.1321362265       -2.4711189703        1.1112001401
 C          2.8245699475       -1.4020827381        0.5664833699
 N          1.1662859496        1.4837824738        1.7267015863
 H          2.2790039871        2.8992623091        2.8535352428
 H          2.0542180779        4.6620325897        2.6436456583
 H          1.9452443191        3.9468422857        4.2708315154
 H         -2.6213387853        2.7027473180        0.1186559105
 H         -4.6293311059        3.7657511106       -0.8095478782
 H         -8.4898856586        1.2031687504       -0.9169880670
 H         -7.8715715973        0.9540030236       -2.5621364569
 H         -8.9852281385        2.2724504535       -2.2224958924
 H         -6.7018922693        4.4380772811       -0.3070739720
 H         -8.3481977201        4.2077412950       -0.8905745870
 H         -7.7282284883        3.2103912247        0.4290128951
 H         -7.4584010344        3.8534051079       -3.2648341741
 H         -5.8107771017        4.0812203875       -2.6850651547
 H         -6.2365169369        2.6130867306       -3.5617221661
 H         -6.6255620119       -0.0005118446       -0.9838893123
 H         -6.9167449271       -1.1555892301        0.6793797176
 H         -8.2332106912       -2.0468823864       -0.0997251917
 H         -7.4390123224       -2.6900043640        1.3365852689
 H         -7.7091027997       -4.4436588088       -0.8954297247
 H         -6.0476016106       -5.0041227984       -1.0411362898
 H         -6.7770705684       -4.7741023486        0.5576834279
 H         -5.7696311168       -1.5292115081       -2.0930177141
 H         -7.3115075670       -2.3717855459       -2.2947209504
 H         -5.7870168633       -3.2205314167       -2.5434285537
 H         -4.5965784740       -4.7420564295        0.6354525219
 H         -2.4190856428       -4.4909383362        1.6369096088
 H         -1.3005698855       -2.2678940920        1.6810657775
 H         -0.1494943910       -2.1635737825       -0.3787999277
 H          0.8294213889       -1.0399279025       -1.3152263925
 H         -0.9372453706       -0.9320186120       -1.3548678101
 H          2.5962074051        2.6491971526        0.0895983931
 H          4.6302383457        3.6831463340       -0.8072690944
 H          8.4382054761        1.0419573086       -0.9247086266
 H          7.8258678039        0.8324405011       -2.5768032527
 H          8.9662153455        2.1202112370       -2.2099280793
 H          8.3662138079        4.0453748972       -0.8519047555
 H          6.7205936671        4.3092801176       -0.2814279815
 H          7.7091267814        3.0469026476        0.4484909238
 H          7.4817123703        3.7457963629       -3.2403250493
 H          5.8381978373        4.0074088693       -2.6634214339
 H          6.2297940335        2.5413028764       -3.5586199376
 H          6.5474672736       -0.1201517083       -1.0291285639
 H          5.8411349190       -5.0966999991       -1.2347293729
 H          7.5173029088       -4.5835277375       -1.0812893801
 H          6.5840313899       -4.9349792887        0.3662097136
 H          6.8133992200       -1.3278036046        0.6013402576
 H          7.3040570020       -2.8948907630        1.2038289816
 H          8.1047249927       -2.2223279395       -0.2152689595
 H          5.6232626682       -3.2645851594       -2.6814669174
 H          7.1676302682       -2.4590240824       -2.4132495814
 H          5.6463197441       -1.5876679640       -2.1813858301
 H          4.4072532401       -4.8481730116        0.4632780826
 H          2.2390135328       -4.5710115345        1.4781629849
 H          1.1712996640       -2.3265058555        1.5788175425
