  86
       -123.76540512
 C          4.5706440558        4.9883204867        0.1157455256
 C          3.7018527964        3.7679135836        0.0809865195
 C          3.7471887921        2.8446509787        1.1155981300
 C          2.9477212893        1.7180013791        1.1094124346
 C          2.0767785063        1.4889001139        0.0521275400
 C          1.1940831061        0.3033604667        0.0427288609
 C          1.7665009180       -0.9807234964        0.0577203922
 C          3.2337347463       -1.1204888529        0.1796040907
 C          4.0757191859       -0.5812290241       -0.7869983659
 C          5.4470112646       -0.7101392912       -0.6721841944
 C          5.9952909686       -1.3759076605        0.4107351369
 C          5.1642445082       -1.9122444296        1.3793387899
 C          3.7925652704       -1.7860856805        1.2651277484
 C          0.9661113459       -2.1009921406       -0.0921528811
 C          1.6500678615       -3.4127129772       -0.0694778683
 C          2.5926875766       -3.7481384266       -1.0375885943
 C          3.2817630743       -4.9445424906       -0.9585167595
 C          3.0449655673       -5.8154104965        0.0913425413
 C          2.1096367859       -5.4885046261        1.0595493604
 C          1.4158563195       -4.2961916637        0.9815005229
 C         -0.4395014601       -1.9669880837       -0.2010800497
 C         -1.3067527630       -3.0431653587       -0.5889910079
 N         -0.8128982347       -4.2906795800       -0.9285784941
 C         -2.6630988386       -2.8457609578       -0.6287457887
 C         -3.2771902340       -1.6579495923       -0.1869358077
 C         -4.7061113015       -1.5040625271       -0.1266363321
 C         -5.5922878434       -2.4833829170       -0.6094398471
 C         -6.9514814781       -2.3056250737       -0.5852025703
 C         -7.4952567083       -1.1248464258       -0.0787205760
 C         -6.6634359680       -0.1537795525        0.4129615467
 C         -5.2675792334       -0.3205158543        0.4162124784
 C         -4.3932431088        0.6641528453        0.9754135680
 N         -4.9138717825        1.7930007699        1.5925352192
 C         -3.0390666035        0.5190704576        0.8481265694
 C         -2.4512748751       -0.5884220310        0.2016594502
 C         -1.0264325117       -0.6915730062        0.0188903584
 C         -0.1851091210        0.4477050639        0.0370050707
 C         -0.7204857336        1.8190903629       -0.0900232065
 C         -1.5081369992        2.1497568391       -1.1874329701
 C         -1.9325393064        3.4512242484       -1.3678381969
 C         -1.5825493256        4.4555209948       -0.4760429464
 C         -2.0428256303        5.8633823289       -0.7018614019
 C         -0.7938683605        4.1316124126        0.6314598368
 C         -0.3843766777        5.1864316957        1.6139989941
 C         -0.3777697358        2.8226025696        0.8098345800
 C          2.0406382475        2.4053116808       -0.9920060286
 C          2.8331433853        3.5409174991       -0.9902164433
 C          2.7453020988        4.5166826258       -2.1239424549
 H          5.1711065536        5.0076378082        1.0218476516
 H          5.2408237923        5.0078396245       -0.7434796203
 H          3.9647702620        5.8935707831        0.0819857570
 H          4.4186916838        3.0129168844        1.9461926637
 H          2.9891370370        1.0208986801        1.9336763707
 H          3.6497769117       -0.0646494820       -1.6351679138
 H          6.0906761734       -0.2891791354       -1.4311449347
 H          7.0672290659       -1.4755367759        0.5001117561
 H          5.5864659740       -2.4307988912        2.2280628413
 H          3.1458852447       -2.2001133528        2.0254604522
 H          2.7801416998       -3.0676801252       -1.8562017391
 H          4.0102156646       -5.1943792121       -1.7162360261
 H          3.5894232307       -6.7459987170        0.1557473160
 H          1.9250763703       -6.1646680212        1.8816396434
 H          0.6873505004       -4.0363686393        1.7353760870
 H          0.1101880246       -4.3258221885       -1.3281537919
 H         -1.4829441530       -4.8909283205       -1.3839178595
 H         -3.2702088021       -3.6684919852       -0.9743007605
 H         -5.2052085940       -3.3990495889       -1.0273983207
 H         -7.6048316182       -3.0753382043       -0.9704128026
 H         -8.5657102734       -0.9790789744       -0.0795030855
 H         -7.0879352931        0.7680479129        0.7823308162
 H         -4.2292038500        2.3346542078        2.0981153278
 H         -5.7738840073        1.6640331865        2.1015266621
 H         -2.4056257388        1.2619284413        1.3044191996
 H         -1.7807320625        1.3840204776       -1.8989901369
 H         -2.5428370509        3.6951965223       -2.2260805824
 H         -2.6347573237        5.9332297418       -1.6109345473
 H         -1.1910251898        6.5373918388       -0.7900350693
 H         -2.6513810919        6.2085797102        0.1336787672
 H         -1.2572305928        5.6621008506        2.0610335687
 H          0.1971081445        5.9629219352        1.1177958014
 H          0.2238801024        4.7570360755        2.4060709734
 H          0.2239464040        2.5726791503        1.6726019353
 H          1.3726350003        2.2277061871       -1.8233105086
 H          2.4381930606        5.4970433324       -1.7603377076
 H          2.0205899652        4.1820404461       -2.8617748566
 H          3.7130229197        4.6330339101       -2.6115244745
