  80
       -118.16578990
 C          0.5912125915       -0.8106555948        0.0440958669
 C          1.4717493687        0.1540085062       -0.3292466839
 C          2.9037642141        0.0675611474       -0.2759901792
 C          3.6671138147        1.1613156320       -0.7165571761
 C          5.0419406524        1.1443186579       -0.6792257483
 C          5.7155553766        0.0223423969       -0.1967438181
 N          7.1132925154       -0.0001765732       -0.1473564705
 C          7.9657725387        0.3294489288       -1.1826709923
 C          7.6710246291        0.6901851332       -2.4898399833
 C          8.7279688635        0.9423549811       -3.3434371753
 C         10.0497798753        0.8316984108       -2.9177761140
 C         10.3495746545        0.4481801486       -1.6257100614
 C          9.3044424475        0.1893703718       -0.7493007233
 C          9.2470819149       -0.2400139197        0.6201198316
 C         10.2159353434       -0.5210886339        1.5739770236
 C          9.8095330701       -0.8948584914        2.8394833600
 C          8.4568501003       -0.9739352938        3.1629269468
 C          7.4743786895       -0.6992892625        2.2309681979
 C          7.8763757027       -0.3481263046        0.9500280175
 C          4.9756319411       -1.0768119662        0.2398594889
 C          3.6007305520       -1.0534490551        0.2012485842
 C         -0.8294717612       -0.7264222802        0.0077787474
 C         -1.5460582153        0.4081006729       -0.4352918727
 C         -2.9079423141        0.4416326576       -0.4239200540
 C         -3.6826203401       -0.6696444346        0.0120288666
 C         -5.0873480442       -0.6073379046        0.0682463555
 C         -5.7711847133        0.6824187882        0.0969635716
 C         -5.2802919316        1.7145857740        0.9585533777
 C         -5.4773224246        3.0788949503        0.6628128442
 C         -4.9632609749        4.0616314837        1.4781193717
 C         -4.2417894430        3.7288449724        2.6170580721
 C         -4.0305804960        2.3911191785        2.9238785846
 C         -4.5323602907        1.4003716825        2.1115851221
 C         -6.9376765230        0.8570612142       -0.7165874817
 C         -7.0978572533        0.1246462474       -1.9091743629
 C         -8.2315125261        0.2588008226       -2.6775158089
 C         -9.2515711588        1.1149862072       -2.2843896981
 C         -9.1210908541        1.8350760638       -1.1046971496
 C         -7.9873382338        1.7146390160       -0.3328821810
 C         -5.9133289336       -1.7951239393        0.1186006471
 C         -7.1188867212       -1.7923120271        0.8359396366
 C         -7.9293584235       -2.9065544345        0.8625519232
 C         -7.5718158204       -4.0507188285        0.1643045979
 C         -6.3927361737       -4.0652701182       -0.5657456283
 C         -5.5717276624       -2.9576404133       -0.5892238408
 C         -2.9580760724       -1.8144470746        0.4446401832
 C         -1.5955803876       -1.8298519039        0.4502463650
 H          0.9778106075       -1.7517978489        0.4136725013
 H          1.0901661007        1.0933432218       -0.7063230456
 H          3.1580687424        2.0412722974       -1.0838872989
 H          5.6083130210        2.0055750692       -1.0015584774
 H          6.6505486482        0.7594831505       -2.8351501319
 H          8.5243575700        1.2271909485       -4.3652358672
 H         10.8477833286        1.0402557465       -3.6147710843
 H         11.3738071307        0.3458042279       -1.3000733147
 H         11.2641285731       -0.4424139281        1.3276606259
 H         10.5469139106       -1.1198565124        3.5956828505
 H          8.1691673345       -1.2518197852        4.1662477711
 H          6.4292882784       -0.7443697658        2.4975340923
 H          5.4944384162       -1.9560611206        0.5925776753
 H          3.0568631068       -1.9207035797        0.5412895998
 H         -1.0051596105        1.2696138541       -0.7959844329
 H         -3.4230676979        1.3176562888       -0.7892511594
 H         -5.9966978894        3.3505220644       -0.2445840454
 H         -5.1147589763        5.1008233845        1.2229498617
 H         -3.8432519813        4.5035980007        3.2545037049
 H         -3.4713428171        2.1246169512        3.8091799317
 H         -4.3816584833        0.3632393667        2.3727386813
 H         -6.3013730201       -0.5280658202       -2.2344573769
 H         -8.3262268106       -0.3043641436       -3.5946992302
 H        -10.1416004651        1.2149772243       -2.8871880988
 H         -9.9193409184        2.4889900264       -0.7834695268
 H         -7.9173703421        2.2457048519        0.6052486983
 H         -7.3972745229       -0.9093555489        1.3927795413
 H         -8.8480975119       -2.8871733281        1.4307305093
 H         -8.2107745091       -4.9208858977        0.1822166676
 H         -6.1176439488       -4.9467534566       -1.1270951561
 H         -4.6757163334       -2.9646360985       -1.1931550252
 H         -3.5050298906       -2.6605982941        0.8339159114
 H         -1.0755138928       -2.7052157504        0.8155191310
