65
 energy: -105.616326411221 gnorm: 0.000086987758 xtb: 6.7.1 (edcfbbe)
C           -6.74901142314524        0.51087055152999        2.02963198351068
C           -5.43339453142838        0.16843145043235        1.33000251075259
C           -4.37264435005414       -0.10372995292211        2.41668030083984
C           -5.55423660669449       -1.05262002302921        0.43335682495950
C           -6.62288761641379       -1.93615697924284        0.44984385046235
C           -6.66710123516024       -3.01631293473831       -0.41634953714004
C           -5.65446985190120       -3.21292480064516       -1.33861390115628
C           -4.58390846805429       -2.33851746823296       -1.37908874048344
C           -4.51779351709664       -1.28395555798194       -0.47668122607564
N           -3.45892876346211       -0.34900706283392       -0.52091404918964
C           -2.13478597262973       -0.68467792805372       -0.41314013402605
C           -1.75418479341339       -2.05577689035269       -0.29262699979920
C           -0.45323878214312       -2.43532229332906       -0.19387938389997
C            0.57843121907518       -1.46797982685347       -0.18353877089546
N            1.85517993882819       -1.83936638820456       -0.09979477646382
C            2.77588614555774       -0.88548816492765       -0.04821227742290
C            4.16922929072536       -1.26028671887648        0.03812907048596
C            4.50903984464527       -2.61361509788522        0.04630035880341
C            5.83603793300620       -3.00370095106179        0.12833625509204
C            6.17647304533245       -4.37462376728677        0.13764056878137
N            6.46107550693137       -5.48650201854638        0.14608159833501
C            6.84240745454950       -2.02974708006419        0.20288110412348
C            6.50805045085908       -0.69714574903732        0.19457393344753
C            5.17360457511742       -0.27064029517363        0.11374369564879
C            4.80301568210403        1.13506938272081        0.10485815319359
C            5.75341971560156        2.16482989833712        0.18713987649980
C            5.38804108555451        3.48916545376445        0.17452159273480
C            4.03417685982422        3.84107101306371        0.07734267547646
C            3.65563708433390        5.20182474356331        0.06079683612235
N            3.35639614601039        6.30979431366690        0.04699339609050
C            3.07246578348830        2.84624890267586       -0.00304915455556
C            3.44363309519818        1.50230116108403        0.01072189954722
C            2.41106882397960        0.48883539238905       -0.07041280945777
N            1.14957767568006        0.87092046092847       -0.16180904232494
C            0.20599634692065       -0.08594103522608       -0.22795324556469
C           -1.14037733269244        0.27802432981711       -0.33357219942909
C           -3.92935160834231        0.98451702572196       -0.48235256118697
C           -3.47589966251148        1.93320413107546       -1.38973667599921
C           -3.98727863865719        3.21757266251747       -1.35513648649560
C           -4.96546005988734        3.54296540911657       -0.43213894019346
C           -5.44994626072975        2.58213954742479        0.43997241691393
C           -4.94573699042126        1.29035139735183        0.42793695949718
H           -7.53591816255600        0.71214959043112        1.30628902932544
H           -6.61800034370750        1.38301514864223        2.66484058724109
H           -7.05610923361426       -0.31142468756873        2.67067281313109
H           -3.40349812740388       -0.34413519576271        1.98802485451638
H           -4.25660166055966        0.77635631373573        3.04571132000581
H           -4.68823818839439       -0.93855848086323        3.03894075407985
H           -7.43637108405396       -1.79273193452195        1.14163687065126
H           -7.50501605692293       -3.69624871212947       -0.38026194759643
H           -5.70111838852188       -4.03608305949347       -2.03559780337637
H           -3.80725358386386       -2.45976083270359       -2.11979732456432
H           -2.52473795615424       -2.80890734488960       -0.25155271505028
H           -0.17896817707013       -3.47515372466993       -0.10312000994773
H            3.71580881547548       -3.34289258556693       -0.01257639655045
H            7.87599295569255       -2.33564952935355        0.26608241744827
H            7.30588787931603        0.02440535295771        0.25183774708334
H            6.80202137944626        1.93019115881039        0.26306464092412
H            6.13633779783540        4.26499300043960        0.23908866185760
H            2.02319091608948        3.08745738252337       -0.07675463747455
H           -1.36793140883748        1.33097459486138       -0.32849004122939
H           -2.73834072708752        1.65935602008629       -2.12905671456643
H           -3.62853618786582        3.95663265704463       -2.05567193543618
H           -5.36629182816871        4.54500459134893       -0.39981129729782
H           -6.22951140992081        2.85564144041271        1.13170673690362
