65
 energy: -105.571899390579 gnorm: 0.000064655370 xtb: 6.7.1 (edcfbbe)
C           -6.89580904192958        1.60605996390990        0.06259212283350
C           -6.31397245780657        0.17899132796394        0.01138408846072
C           -7.45417420871124       -0.85821696087053       -0.01797033050189
C           -5.49479734829747        0.03611410154477       -1.25346062733467
C           -6.10111679249277        0.20804125738672       -2.49063785171250
C           -5.39537780733829        0.09276918560285       -3.67447430766554
C           -4.04061765374598       -0.20330450065110       -3.63787788869138
C           -3.41186506302909       -0.38166608663911       -2.42640949240121
C           -4.12386324976869       -0.26618281273074       -1.22348899318167
N           -3.46669340759145       -0.45095070546335       -0.02517594463570
C           -2.07833295436035       -0.77845996817664       -0.04371299429743
C           -1.68927028677203       -2.11527741314799       -0.10032517063297
C           -0.34899504467470       -2.44706619848398       -0.11348548822764
C            0.63373521348387       -1.45481048377078       -0.07039755200463
N            1.93638219187903       -1.75100708569199       -0.07480476418501
C            2.85594204210379       -0.79652173316133       -0.03347698742355
C            4.24982698331499       -1.12425807824135       -0.02920082476202
C            4.62653071760869       -2.47076273473770       -0.06791196144468
C            5.96105672750527       -2.83099691504018       -0.05937950096716
C            6.33155427780651       -4.18998828686767       -0.09848535101321
N            6.64059753132264       -5.29626694835048       -0.13069038532917
C            6.95228801828622       -1.82903884353721       -0.00960886027965
C            6.58940356470767       -0.50997246357207        0.02629958380905
C            5.24007131386214       -0.10585036974458        0.01712077929526
C            4.83654797128478        1.27185832042212        0.05160914102690
C            5.75545228086072        2.33894501082157        0.08839965954497
C            5.34955999108106        3.64557191364749        0.11856659690061
C            3.97387880851776        3.95563758296268        0.11442036985205
C            3.55275260868133        5.29987461166496        0.14427120692864
N            3.21597399455523        6.39825385064259        0.16884681628290
C            3.04381723919257        2.93360665740983        0.07957895325177
C            3.45297825315874        1.59654021987975        0.04773716514229
C            2.45500556387944        0.56994624219350        0.01038376860862
N            1.16605138548970        0.88035631996447        0.01723490512508
C            0.22845862173025       -0.07276654885222       -0.01806944831104
C           -1.13158870036039        0.23523742060357       -0.00496087597054
C           -4.11075014248373       -0.34652506778444        1.19004550297256
C           -3.38645536735795       -0.54360492224402        2.37481799232728
C           -4.00278033774458       -0.45059655979129        3.60217367473233
C           -5.35694381257518       -0.15818878755970        3.67310408573539
C           -6.07441940569842        0.03936668263797        2.50740537933026
C           -5.48133175773889       -0.04806748844449        1.25497747478948
H           -6.08893836949309        2.33602331088389        0.09220141433423
H           -7.51248912313894        1.73892263248759        0.94634220159354
H           -7.50667090521883        1.80441105290412       -0.81290141701856
H           -7.04142845484939       -1.86444681388354       -0.05948672538210
H           -8.07215440410704       -0.77642665695355        0.87097263140620
H           -8.08708516116798       -0.70974976462295       -0.88756659809498
H           -7.15337964753014        0.43994320001815       -2.53845703127461
H           -5.89742944705532        0.23286752002891       -4.61934318677098
H           -3.47539669277437       -0.29522289903567       -4.55284007482774
H           -2.35867863087961       -0.61282577332922       -2.39844626620460
H           -2.44149812203165       -2.88828148533796       -0.13274358686027
H           -0.03281131159597       -3.47741205514219       -0.15478898980366
H            3.85119743695109       -3.22153063996516       -0.10371610435989
H            7.99347244692951       -2.11497057152654       -0.00112187139972
H            7.37080905045601        0.23114487556804        0.06354661769047
H            6.81357997126083        2.13506288538507        0.09162583751915
H            6.07192752884863        4.44772136096313        0.14518138125387
H            1.98560931186685        3.14843573881535        0.07568160517744
H           -1.43131213832401        1.27078358581555        0.03637885055456
H           -2.33351255800684       -0.77089816697388        2.32052334711524
H           -3.42815022147449       -0.60590832991425        4.50259881469530
H           -5.84931818460974       -0.08398678968873        4.63049800325177
H           -7.12591459127422        0.26772765515282        2.58170847328799
