65
 energy: -105.566556296179 gnorm: 0.000067431190 xtb: 6.7.1 (edcfbbe)
C           -6.79820325190070        0.60029611645289        1.97526309769884
C           -5.47426655658314        0.21157304655565        1.31649985470139
C           -4.44218844699756       -0.04527103201298        2.43474089380028
C           -5.59674717689920       -1.03519683811459        0.45819593476572
C           -6.67679514350071       -1.90396143752552        0.48499217790706
C           -6.72210132473872       -3.00999544992163       -0.34796999292291
C           -5.69762527888620       -3.24760154223159       -1.24804618672490
C           -4.61235403596274       -2.39281970514907       -1.29489459432826
C           -4.54456317928163       -1.31205615081976       -0.42255960552900
N           -3.47341788951623       -0.39662956732055       -0.47414297047508
C           -2.14867363364016       -0.75895441120598       -0.38951139216937
C           -1.76551571024479       -2.10672042772114       -0.26762611578816
C           -0.43994912453869       -2.46403325123516       -0.16237730498638
C            0.57758880466846       -1.50916391709450       -0.18778732990124
N            1.86949209196188       -1.81999213614943       -0.11054560244709
C            2.81067479848627       -0.89389675084572       -0.04947852353102
C            4.19718810918014       -1.24436245015857       -0.01364256819442
C            4.55131845015740       -2.59646689463981       -0.06409639310462
C            5.87839993991979       -2.98106463033523       -0.01422127945296
C            6.22570212079602       -4.34525925665339       -0.06398163455505
N            6.51525061167368       -5.45674263712468       -0.10407867855042
C            6.88466144218403       -1.99747917618951        0.08826978090157
C            6.54414421702357       -0.67322883515864        0.13615479143915
C            5.20290356233570       -0.24376368144710        0.08649076342014
C            4.82241919529446        1.13855368654591        0.13107604022205
C            5.75564309631032        2.18825821124487        0.24529928702961
C            5.37185193793354        3.50109744188201        0.27439381030361
C            4.00390782055513        3.83714114115200        0.18971628301581
C            3.60598465654557        5.18830000081974        0.21113027597973
N            3.28812821333941        6.29254864571814        0.22847916855776
C            3.05957362867947        2.83353178566004        0.08520628035320
C            3.44606348157871        1.48917939203620        0.05387711250258
C            2.43324902005922        0.48453731728032       -0.04517130809102
N            1.15992854336553        0.80842272812023       -0.19458216760411
C            0.19756464934826       -0.11625906089012       -0.25837840777928
C           -1.14574336218695        0.21991008040773       -0.31953255007343
C           -3.91056724788913        0.94173078640498       -0.48345630337249
C           -3.40367936460602        1.86212471000995       -1.39541355008428
C           -3.88105289476128        3.15949166585065       -1.40126598479283
C           -4.87669979809290        3.52929381450856       -0.51389914782206
C           -5.41084573150137        2.59989663332591        0.36490969180061
C           -4.94504768785262        1.29508138822909        0.39268719487962
H           -7.56466985989330        0.79368506330208        1.22840234458972
H           -6.66418392531839        1.48865463968823        2.58671753128298
H           -7.13515443366302       -0.19576411081097        2.63391358111228
H           -3.47215503070911       -0.32808438874542        2.03474546985575
H           -4.31548448353997        0.85444007484524        3.03294317441955
H           -4.79240177848047       -0.84757076258172        3.08050486005734
H           -7.49953556690148       -1.72654376268780        1.15744215396531
H           -7.57055174208564       -3.67614221085909       -0.30607164935807
H           -5.74695702259072       -4.08801136169136       -1.92370023812317
H           -3.82996479336999       -2.54369033704080       -2.02327824550276
H           -2.51316238339173       -2.88024646514139       -0.22417182041897
H           -0.15949044859995       -3.50228017072430       -0.07577167332870
H            3.76550163529941       -3.33357022501800       -0.13843309923947
H            7.91965338249259       -2.30279331976653        0.12697735765863
H            7.33657107295949        0.05311703014324        0.21168534848461
H            6.80751320890470        1.96420986057132        0.31309336027417
H            6.10494513235756        4.28912355690040        0.36065636702429
H            2.00740710410996        3.06909316775677        0.02428310027965
H           -1.39633613833292        1.26518466012859       -0.23588464878286
H           -2.65822005582123        1.55114508163826       -2.11181904663667
H           -3.48293566569215        3.87375720622319       -2.10588612691485
H           -5.25248870792432        4.54126712899252       -0.51463048244698
H           -6.19846593885088        2.90994250681656        1.03140174819555
