67
 energy: -109.400110898411 gnorm: 0.000036423993 xtb: 6.7.1 (edcfbbe)
C           -3.09226308443197        4.43789322954686        1.25736839355940
C           -4.36289820777610        3.86334210808357        1.11829630740680
C           -4.47798654595050        2.55103524439616        0.69485134364434
C           -3.35337246877605        1.79026452537225        0.41607042852893
N           -3.50886875388590        0.49226179309727       -0.08237083358578
C           -4.20731780132578       -0.52932449688883        0.52454368402091
C           -4.87331942409489       -0.53649571152118        1.74283697504145
C           -5.47418071262390       -1.71692294059631        2.14119926790650
C           -5.40894538734289       -2.86510147370687        1.35515297039874
C           -4.73002691174604       -2.86825040569479        0.14824953012363
C           -4.12260693663422       -1.69568490033052       -0.27399133165419
C           -3.34008666621864       -1.34042164389399       -1.42961449569401
C           -2.93243134476296       -2.03127578801644       -2.56055109299192
C           -2.18771564683438       -1.35893087438713       -3.51417045771481
C           -1.86449203798227       -0.01259567405675       -3.35705606297628
C           -2.26018519745660        0.69724581598907       -2.23900423991973
C           -2.98419637879664        0.01993875234153       -1.26625382177764
C           -2.05058971340424        2.34006470158496        0.62753818117931
C           -0.87210151964916        1.57788961105838        0.56470367206406
N            0.37107509402800        2.05264644543310        0.70764745296315
N            1.20650683067115        1.06261771684494        0.58491501769573
C            0.51133018298957       -0.05583203394552        0.36644079571004
C            0.97889806585370       -1.36614017432058        0.18262017677124
C            0.05301448563242       -2.43893187238339        0.12567578373896
C            0.47586998599626       -3.73979277838466        0.13705161282917
C            1.84173645400893       -4.04289411935249        0.19816388007761
C            2.77126392605882       -3.01626550138063        0.20480714162508
C            2.37225078915692       -1.68981715702283        0.16200655536304
N            3.33698843849675       -0.68435566183128        0.07949859508567
C            4.37876225725368       -0.49379822223226        0.95806091182858
C            4.68009323234528       -1.18071497578591        2.12781755292001
C            5.78441036735305       -0.76797852033401        2.85088145327995
C            6.56670244482617        0.30442924689901        2.42902894293245
C            6.25927997655374        1.00499904137971        1.27305131960597
C            5.15933585127254        0.60823382254314        0.53080381027972
C            4.54985303595976        1.08859955604408       -0.68365380755270
C            4.86540513247915        2.10018713372193       -1.57625655403355
C            4.06648204641775        2.26775506855353       -2.69535058074336
C            2.97993983280400        1.43040728337644       -2.93510235465719
C            2.64895798634376        0.41317390877116       -2.05910957853280
C            3.42680913467272        0.26249625767446       -0.91959037399419
O           -0.84456651365695        0.21688961860012        0.35763738909324
C           -1.96572077140061        3.70110804227614        1.01608579379650
H           -3.00587580798553        5.47015233353739        1.56210948736691
H           -5.24805074449668        4.44928846850457        1.30905648331006
H           -5.45340342093857        2.11304170138443        0.53697610618456
H           -4.91383519070342        0.34799750993416        2.36040735926840
H           -6.00147609804152       -1.74950008107980        3.08300892925592
H           -5.89129120801658       -3.76796811599108        1.69899690913637
H           -4.67022172514261       -3.76420652964821       -0.45086212134174
H           -3.19211863888077       -3.07059397653584       -2.69342030578356
H           -1.85631620580915       -1.88081939660495       -4.39961135240117
H           -1.29388060675089        0.48826144606886       -4.12541126959326
H           -2.00927471091047        1.74157666267724       -2.12136588537271
H           -0.99889457229586       -2.19804051246145        0.09217303877266
H           -0.24788827151544       -4.54047650156029        0.10247881841375
H            2.17052355982258       -5.06995481629860        0.20506965494458
H            3.82822630495518       -3.24090036601521        0.19777042378025
H            4.06644546343024       -2.00250711299886        2.46424224493088
H            6.04286842414658       -1.28531363630888        3.76273086265902
H            7.42219177154036        0.59755135586256        3.01906416614964
H            6.86058113170221        1.84465475481123        0.95995904847123
H            5.71743675778980        2.74014241676095       -1.40482525438702
H            4.29156861901371        3.05465039908350       -3.39978471690706
H            2.38594222357027        1.57646092987280       -3.82529559994299
H            1.81092901606229       -0.24042076994299       -2.25056053794389
H           -0.97848476268326        4.11961248849926        1.13429431206163
