67
 energy: -109.486710767414 gnorm: 0.000082429752 xtb: 6.7.1 (edcfbbe)
C           -3.35475658401677        4.28020587243853        1.55449422171937
C           -4.55726139112236        3.70522466432003        1.16709695551947
C           -4.57445805019464        2.43659113352400        0.61780851582989
C           -3.39454411151242        1.71641915187317        0.46160753251820
N           -3.43866928221335        0.44643522772239       -0.13413176380463
C           -4.12410516719132       -0.64852616125340        0.35491015020019
C           -4.92095797508397       -0.75457933966397        1.48523524057948
C           -5.47981631874432       -1.98786257869175        1.76422976086916
C           -5.24772425371735       -3.09297319845396        0.94739570274841
C           -4.44166974856841       -2.99553802547593       -0.16989140512218
C           -3.87114766586395       -1.76567783599137       -0.47363453055566
C           -2.99383134592572       -1.31033618030269       -1.51703702149627
C           -2.40558020857890       -1.92883546998127       -2.61282015121369
C           -1.59869128325486       -1.17613630532450       -3.44297951908136
C           -1.38564655288277        0.17969162675126       -3.20063398479950
C           -1.95830761742246        0.81778953668350       -2.11670991400112
C           -2.75336444198362        0.06029031394794       -1.26868038265414
C           -2.18258201970079        2.27979388380160        0.89205084429569
C           -0.93050810582086        1.55688567279944        0.84313543907931
N            0.25601249873825        2.06355483042093        1.03066609450580
N            1.13911969880880        1.06162910898004        0.91799634175696
C            0.46428233187538       -0.02291067380947        0.66719479507122
C            0.94086152755926       -1.37492579661224        0.48147717585943
C            0.02561440184319       -2.42495223028967        0.57983336932624
C            0.44421749985051       -3.73641440964922        0.48614388398180
C            1.78893571555543       -4.01863888694623        0.29362277770447
C            2.70248551950939       -2.98913144553202        0.16522175677090
C            2.29496809954516       -1.65985108750721        0.24318289161913
N            3.23499473651740       -0.64337539787331        0.05566735837613
C            4.40404893387648       -0.48789398096685        0.77606858974937
C            4.88937237215296       -1.23243577968493        1.84076077139815
C            6.09341831018110       -0.84769398475423        2.40121117015025
C            6.79773222455909        0.25500219940435        1.92307616531481
C            6.30887282835203        1.01042142245314        0.87486429722517
C            5.10191602836336        0.64241514855454        0.29461177831098
C            4.31064428937777        1.18484896531347       -0.77557117887880
C            4.48017292159557        2.25989463051327       -1.63785573669616
C            3.51646389133246        2.49601616200251       -2.59825024163806
C            2.40432040307690        1.66569609500052       -2.71528504331663
C            2.21559729438218        0.58831464617462       -1.87058711701273
C            3.16534448434277        0.36470083352160       -0.88504016764492
O           -0.86411650625506        0.22703420402449        0.62196222142238
C           -2.17758754639249        3.57266964999530        1.41982392132768
H           -3.33824708435430        5.27653752320403        1.96791249488205
H           -5.48136905748551        4.25117166522224        1.28008459212422
H           -5.50227780831991        1.99183472119401        0.28969858265262
H           -5.09544262014294        0.09551442980525        2.12793003326648
H           -6.10792212845069       -2.09760754471996        2.63610234908727
H           -5.70307861503363       -4.03942116173457        1.19901610212636
H           -4.25351148922511       -3.85482194420510       -0.79595869134139
H           -2.57679255057801       -2.97679647064264       -2.80751801480539
H           -1.12598243356264       -1.63847534453007       -4.29708903958386
H           -0.75884203085756        0.74463452856400       -3.87492601095433
H           -1.78470762543194        1.86940984833686       -1.93390411598984
H           -1.01676295279503       -2.19567647511458        0.74337901344415
H           -0.27516728068141       -4.53615663156676        0.56877758668656
H            2.12385546974157       -5.04254732142887        0.22699153588413
H            3.74507084334354       -3.20221111038640       -0.01775607193852
H            4.34308259583256       -2.08027309899144        2.22639324871201
H            6.49508361414723       -1.41317083202731        3.22941606471370
H            7.73561577792797        0.52375747719908        2.38661748102634
H            6.84898903809601        1.87276032210087        0.51387506594196
H            5.34982058735031        2.89478391848748       -1.55797709741901
H            3.62500873226510        3.33011254493396       -3.27603043047971
H            1.67501245886787        1.86816815501391       -3.48624016512383
H            1.35253083016636       -0.05457771514620       -1.97758954074907
H           -1.23138231132199        3.98918637683535        1.72746103059181
