  67
       -109.44462172
 C         -3.3685285508        4.3082484687        1.5263276166
 C         -4.5654908702        3.7410129848        1.1124964363
 C         -4.5790856316        2.4733382791        0.5609945070
 C         -3.4006429179        1.7472108415        0.4291533130
 N         -3.4359872250        0.4747814785       -0.1602627236
 C         -4.0980284378       -0.6240217198        0.3498843265
 C         -4.9295051675       -0.7142020317        1.4557768116
 C         -5.4540926348       -1.9548044696        1.7656772094
 C         -5.1550517973       -3.0817421606        1.0029723483
 C         -4.3150452323       -2.9990617599       -0.0899856324
 C         -3.7781650201       -1.7626751351       -0.4243259618
 C         -2.8792688743       -1.3178484426       -1.4533727977
 C         -2.2183647736       -1.9602425142       -2.4920697923
 C         -1.4041669072       -1.2128103718       -3.3191684074
 C         -1.2543030061        0.1597585110       -3.1300895274
 C         -1.8948842126        0.8207555959       -2.0997161275
 C         -2.6972421133        0.0690854878       -1.2538727337
 C         -2.1953599258        2.3036022526        0.8866139940
 C         -0.9485541727        1.5715912658        0.8551383119
 N          0.2450426510        2.0649909981        1.0284848310
 N          1.1138585962        1.0561895840        0.9130885514
 C          0.4266421419       -0.0244020117        0.6761795198
 C          0.8871193406       -1.3779423940        0.4693840524
 C         -0.0365870669       -2.4208325176        0.5555827422
 C          0.3713841853       -3.7329752299        0.4334736476
 C          1.7123339540       -4.0225960152        0.2269980588
 C          2.6332472642       -2.9989807694        0.1103978053
 C          2.2370932009       -1.6679665740        0.2131442051
 N          3.1799513595       -0.6561817170        0.0331155101
 C          4.3610671909       -0.5261608024        0.7368125723
 C          4.8586882117       -1.2995704748        1.7743046746
 C          6.0740485896       -0.9358898358        2.3239303944
 C          6.7769798107        0.1739838148        1.8618796445
 C          6.2753698324        0.9586258956        0.8417113224
 C          5.0576133231        0.6120620826        0.2726778987
 C          4.2527975010        1.1851032425       -0.7706026159
 C          4.4163006602        2.2791572121       -1.6090690994
 C          3.4400821910        2.5431669046       -2.5487586183
 C          2.3225021855        1.7213162731       -2.6697432559
 C          2.1393631591        0.6251198001       -1.8489414125
 C          3.1018050995        0.3745263080       -0.8828199934
 O         -0.8986881602        0.2385966952        0.6470694066
 C         -2.1925102422        3.5949658002        1.4152084562
 H         -3.3568029564        5.3039531307        1.9417035308
 H         -5.4886503421        4.2924513298        1.2074135152
 H         -5.5023873793        2.0348442590        0.2116365658
 H         -5.1550581901        0.1538185690        2.0576012112
 H         -6.1078305785       -2.0530953740        2.6195663934
 H         -5.5856689341       -4.0331260576        1.2774262522
 H         -4.0756695244       -3.8745496300       -0.6748305875
 H         -2.3404695059       -3.0219308803       -2.6450903384
 H         -0.8761273773       -1.6930023246       -4.1295315000
 H         -0.6230888673        0.7190171356       -3.8044092190
 H         -1.7655219477        1.8836144433       -1.9524590081
 H         -1.0757735819       -2.1882570472        0.7330047229
 H         -0.3530115234       -4.5293418153        0.5060353678
 H          2.0378745834       -5.0481915288        0.1391574690
 H          3.6726501481       -3.2174182448       -0.0847575514
 H          4.3121935792       -2.1522921784        2.1491543544
 H          6.4859167172       -1.5239507941        3.1309291524
 H          7.7244877448        0.4244023091        2.3156823528
 H          6.8144789336        1.8268238221        0.4938345315
 H          5.2908878188        2.9065853264       -1.5262036660
 H          3.5436362906        3.3928674055       -3.2072764832
 H          1.5832996150        1.9469850037       -3.4244411051
 H          1.2737561193       -0.0124924747       -1.9611261860
 H         -1.2501691752        4.0049770555        1.7421979963
