67
 energy: -109.400145539340 gnorm: 0.000032759083 xtb: 6.7.1 (edcfbbe)
C           -3.17908060505830        4.31263027144467        1.45017669687562
C           -4.43817757554829        3.72299346110580        1.27514207336460
C           -4.52672721689663        2.42966632723112        0.79113323780535
C           -3.38690154963206        1.70329076317996        0.48430001214673
N           -3.51611949968600        0.42606989516162       -0.07252765490636
C           -4.19070430693225       -0.63651598341164        0.48903928345442
C           -4.85447759516439       -0.71196246638235        1.70621100821523
C           -5.42821069551209       -1.92188904740526        2.05267275285534
C           -5.33911745351087       -3.03244834282878        1.21650461970921
C           -4.66197867103297       -2.96750451825938        0.01034299123533
C           -4.08064511504868       -1.76453620462205       -0.35986478067564
C           -3.30656720488999       -1.34168794062293       -1.49830867582503
C           -2.88215022474616       -1.97351115290719       -2.65724048333715
C           -2.15245143406169       -1.24357516629499       -3.57966003858280
C           -1.86051835891703        0.10185448506883       -3.36411849535685
C           -2.27261199589418        0.75324245683314       -2.21679989690750
C           -2.98143971533973        0.01795066763907       -1.27547563698875
C           -2.09550963217705        2.26649056980130        0.72725199851013
C           -0.90261020724833        1.53015993529593        0.63204799750528
N            0.33137101748064        2.02030411730418        0.79992253639735
N            1.18499167271175        1.05234291032955        0.63387971758641
C            0.51082131488470       -0.06738025820805        0.36249807309958
C            1.00244879798213       -1.35951058221986        0.12161810217164
C            0.09621122225778       -2.44514103362288        0.01400549421918
C            0.54236809062669       -3.73749150172475       -0.02984491697486
C            1.91330560778283       -4.01851908536516        0.02312269204512
C            2.82421576746219       -2.97670982936185        0.07798448924521
C            2.40160429274968       -1.65699099476979        0.09174991178459
N            3.34796833732932       -0.63143704547626        0.05621998091946
C            4.38425039730232       -0.45915090506509        0.94505461171000
C            4.69746692307281       -1.19034420448867        2.08449136620961
C            5.79268031646041       -0.78818830875549        2.82718505257895
C            6.55442954096792        0.31669032121071        2.45438990672469
C            6.23505542858811        1.06065745044763        1.32917722893029
C            5.14394683425258        0.67543484794323        0.56809611599797
C            4.52731373610250        1.19654432089376       -0.62578658191223
C            4.82364007421916        2.25278409368487       -1.47204469576985
C            4.02341307169537        2.45329080891547       -2.58480837491039
C            2.95456678561240        1.60554514711718       -2.86416249477014
C            2.64286899284996        0.54430016625454       -2.03456583057442
C            3.42127624151987        0.35963869710085       -0.90047124724376
O           -0.84978518228502        0.18091661061476        0.36230997478941
C           -2.03792711750049        3.60838019133884        1.18143706688334
H           -3.11295416294042        5.33049145843390        1.80443982861612
H           -5.33504442171080        4.28330880635899        1.48698399850638
H           -5.49302092262905        1.98133687646514        0.60810323421168
H           -4.91345694819245        0.14355765837850        2.36194370651311
H           -5.95258317292270       -2.00776740977379        2.99273859350797
H           -5.80121377425719       -3.95991241931402        1.52029583408698
H           -4.58317476249319       -3.83480420869762       -0.62752885745715
H           -3.11741151033616       -3.01193118248064       -2.83501351585997
H           -1.80795988879891       -1.71904789429408       -4.48599241926232
H           -1.30109230407585        0.64835565606752       -4.10919559858389
H           -2.04550487966983        1.79686997672058       -2.05335438316313
H           -0.95973174685595       -2.22180356659040       -0.01287942082266
H           -0.16686932449948       -4.54857896685500       -0.10211026709674
H            2.26054705787654       -5.03883769228757       -0.01338050769876
H            3.88503039721504       -3.18209388509289        0.06471411128386
H            4.09987066969853       -2.03807465578487        2.38343183489253
H            6.06012034099089       -1.33978505618072        3.71611712344700
H            7.40302771660818        0.60058544646447        3.05874770903881
H            6.82007601735485        1.92478632745837        1.05406263353833
H            5.66206389189657        2.90183351896360       -1.27045156023460
H            4.23399945695788        3.27446444847261       -3.25367806699291
H            2.35966417209913        1.77823129575222       -3.74898593725492
H            1.81912528982118       -0.11753739834336       -2.25675231099076
H           -1.05939188356130        4.03863879656081        1.32637694599442
