  141
       -199.92474113
 C         -6.4820255042        5.5240082018        0.3470721765
 C         -5.0071895783        5.5721607186       -0.0611122561
 C         -4.9365607557        5.9360957308       -1.5513393625
 C         -4.3180150050        6.6603095401        0.7746579080
 C         -4.2960688644        4.2458939805        0.1567757178
 C         -2.9338392043        4.1497380088       -0.1585394624
 C         -2.2129638050        2.9830341463       -0.0068690990
 C         -2.8722949120        1.8668882319        0.4836547385
 C         -4.2462960669        1.9357453573        0.8051325057
 C         -4.9475772678        3.1199204579        0.6403389134
 C         -4.6314886919        0.6179026017        1.2329886354
 C         -5.8333539033        0.0612362949        1.6419594610
 C         -5.8833198160       -1.2791638765        2.0004581913
 C         -7.1774924046       -1.9730408403        2.3936836687
 C         -7.4406423676       -3.1092129847        1.3951243500
 C         -7.0461968723       -2.5429844912        3.8129751704
 C         -8.3833760996       -1.0297902246        2.3706160747
 C         -4.6956185078       -2.0215133655        1.9965363734
 C         -3.4864461903       -1.4909783803        1.5960966942
 C         -3.4688113294       -0.1765576175        1.1578551957
 N         -2.4168934416        0.5789091733        0.6776356598
 C         -1.2141163770        0.0570948060        0.1866346665
 C          0.0011448917        0.6344790655        0.5991498304
 C          1.2153676086        0.0569965097        0.1824697690
 N          2.4200058034        0.5776247136        0.6701569963
 C          2.8781500169        1.8643771466        0.4754095001
 C          2.2233758700        2.9799380816       -0.0224296422
 C          2.9465037949        4.1455716928       -0.1721096022
 C          4.3060243514        4.2418600867        0.1546916645
 C          5.0203149470        5.5668788421       -0.0605919454
 C          4.9861881792        5.9104211214       -1.5569113611
 C          6.4842309639        5.5262521736        0.3860747503
 C          4.3100911545        6.6656928421        0.7429842804
 C          4.9535345776        3.1158307971        0.6434905216
 C          4.2504909355        1.9321466542        0.8042858054
 C          4.6319484064        0.6144201148        1.2357861962
 C          5.8308735125        0.0567769148        1.6521952198
 C          5.8774644480       -1.2834639787        2.0117494315
 C          7.1692735308       -1.9792126955        2.4094622607
 C          7.0251700917       -2.5762225132        3.8163642366
 C          8.3715557215       -1.0311162582        2.4184428868
 C          7.4468425080       -3.0958145857        1.3927876367
 C          4.6893128818       -2.0250359404        2.0002593147
 C          3.4826866623       -1.4930361656        1.5942448099
 C          3.4687071708       -0.1787368867        1.1556310466
 C          1.2310276586       -1.0408759166       -0.6711595381
 N          2.4407944575       -1.5405347792       -1.1606833326
 C          2.9247439511       -2.8206117171       -0.9836798493
 C          2.2947747292       -3.9372926429       -0.4537356425
 C          3.0308655262       -5.1006490015       -0.3364437690
 C          4.3661996301       -5.1557981423       -0.7286106997
 C          5.0048585223       -4.0426872017       -1.2432709087
 C          4.2865045705       -2.8638365891       -1.3700293360
 C          4.6275378427       -1.5424796843       -1.8178194850
 C          5.7890907985       -0.9593541474       -2.3003810457
 C          5.7568358401        0.3720442508       -2.6745348495
 C          4.5771845456        1.1086174633       -2.6116039048
 C          3.4073719911        0.5481941290       -2.1336066376
 C          3.4522741381       -0.7658914420       -1.6934030960
 C         -0.0013452879       -1.6289133332       -1.1183880166
 C         -0.0018172660       -2.6057513288       -2.0970617530
 N         -0.0014294010       -3.4465940777       -2.8965473084
 C         -1.2330717547       -1.0402861749       -0.6680241627
 N         -2.4437030955       -1.5390667910       -1.1556427132
 C         -3.4583702742       -0.7633677770       -1.6810916560
 C         -3.4174034344        0.5525588237       -2.1161755689
 C         -4.5912001096        1.1146377291       -2.5824695867
 C         -5.7710336673        0.3779392307       -2.6395893749
 C         -5.7991842070       -0.9557847518       -2.2734419096
 C         -4.6335182551       -1.5406132426       -1.8031246443
 C         -4.2885336495       -2.8639637651       -1.3645848809
 C         -5.0042939458       -4.0449932740       -1.2438538245
 C         -4.3621922026       -5.1602522940       -0.7382106137
 C         -3.0262637912       -5.1046529610       -0.3481878138
 C         -2.2926015313       -3.9391736936       -0.4600544841
 C         -2.9254608730       -2.8206795634       -0.9826459121
 H         -6.5881208909        5.2824746861        1.4021724913
 H         -7.0285304587        4.7928982856       -0.2441075065
 H         -6.9363106108        6.4982965783        0.1782766372
 H         -5.4541191257        6.8757399348       -1.7324222608
 H         -3.9087006089        6.0439840240       -1.8862477732
 H         -5.4106888363        5.1603587674       -2.1492112193
 H         -4.8299101153        7.6114785645        0.6450109135
 H         -3.2802317943        6.7914015289        0.4817714286
 H         -4.3435719722        6.3954017598        1.8296649038
 H         -2.4166131849        5.0153629911       -0.5429456427
 H         -1.1688460887        2.9426747431       -0.2766524418
 H         -5.9964143374        3.1360750089        0.8839076106
 H         -6.7107710233        0.6851366503        1.6674902422
 H         -6.6300881352       -3.8326889461        1.3941144605
 H         -8.3640472028       -3.6259311093        1.6485384825
 H         -7.5326916257       -2.7042623286        0.3896551507
 H         -6.8200958655       -1.7460385968        4.5184948107
 H         -7.9789343503       -3.0156343952        4.1134636177
 H         -6.2558078444       -3.2855479393        3.8724804837
 H         -8.5378859342       -0.6173691068        1.3762919966
 H         -8.2574261461       -0.2154248413        3.0804855891
 H         -9.2795362348       -1.5810968210        2.6482965001
 H         -4.7108495531       -3.0535383982        2.3101349608
 H         -2.5859406712       -2.0855143101        1.6258930591
 H          0.0026382374        1.4205280184        1.3340176750
 H          1.1812893817        2.9396042538       -0.3001385715
 H          2.4333613904        5.0101550405       -0.5641954284
 H          5.4788041212        5.1288505158       -2.1317638634
 H          3.9663049625        6.0079433251       -1.9185338081
 H          5.5037681180        6.8500791794       -1.7378312917
 H          6.5630877439        5.2899817486        1.4448040681
 H          7.0492791153        4.7947647930       -0.1868590050
 H          6.9391629570        6.5014357929        0.2244439487
 H          4.3032707246        6.4117707835        1.8009392487
 H          4.8291014482        7.6137509007        0.6189115245
 H          3.2821833829        6.7980551778        0.4179322934
 H          6.0005047093        3.1318497897        0.8949543810
 H          6.7089011967        0.6796306454        1.6819755217
 H          6.2413259498       -3.3270788168        3.8527514595
 H          6.7831483987       -1.7943023151        4.5333081550
 H          7.9582660424       -3.0461489730        4.1200474906
 H          9.2647843970       -1.5820029196        2.7060991498
 H          8.5428507273       -0.6068476082        1.4319391201
 H          8.2290341383       -0.2253596453        3.1349867017
 H          7.5474886123       -2.6720861783        0.3958795842
 H          8.3693901406       -3.6142467412        1.6458192841
 H          6.6381142474       -3.8211005617        1.3706468339
 H          4.7021097742       -3.0575513603        2.3121955809
 H          2.5812697439       -2.0862849384        1.6202613108
 H          1.2620055799       -3.9051371204       -0.1451077967
 H          2.5607626248       -5.9848865103        0.0670746716
 H          4.9088571617       -6.0838164185       -0.6247518617
 H          6.0421642916       -4.0865492984       -1.5384885826
 H          6.6974093954       -1.5364601002       -2.3864726749
 H          6.6545930699        0.8453326817       -3.0435438636
 H          4.5716995661        2.1359223231       -2.9435968354
 H          2.4874898993        1.1127674902       -2.1164247976
 H         -2.4978963549        1.1178833382       -2.1032204726
 H         -4.5888144243        2.1437568430       -2.9088243646
 H         -6.6721582244        0.8529179773       -2.9980947931
 H         -6.7075833310       -1.5332860248       -2.3559914014
 H         -6.0421613240       -4.0889728209       -1.5370287847
 H         -4.9025863506       -6.0901634049       -0.6397310188
 H         -2.5533766701       -5.9904539947        0.0485640133
 H         -1.2592604902       -3.9073829052       -0.1534313832
