  51
  -92.7689106800000       0.259703339737856      !
 Cl        -0.2574173191       -3.8963886754        1.8169810171
 C         -0.1635788843       -2.3339094800        1.1276898917
 N         -1.3054834164       -1.7513724025        0.8490992118
 C         -1.3328850294       -0.5410816317        0.3008306940
 N         -2.5774833176       -0.0045552343        0.0537164570
 C         -3.6482476817       -0.7005958771       -0.5010550943
 C         -3.7278804279       -2.0258207678       -0.8917873831
 C         -4.9106806799       -2.4554039225       -1.4663316395
 C         -5.9846357661       -1.5896192512       -1.6529054855
 C         -5.9047622602       -0.2649946534       -1.2693173055
 C         -4.7278925275        0.1866473052       -0.6878224289
 C         -4.3096911927        1.4644186964       -0.1737439273
 C         -4.9513832761        2.6870447849       -0.0359603997
 C         -4.2753168724        3.7234785474        0.5784904535
 C         -2.9902657439        3.5396668280        1.0787828878
 C         -2.3327339157        2.3293133713        0.9513232383
 C         -2.9857530751        1.3029436395        0.2880883764
 C         -0.1412391417        0.1091219478       -0.0603130947
 Cl        -0.1506864266        1.5337408656       -1.0393237716
 C          1.0848130427       -0.4789864279        0.2712728313
 N          2.2820595633        0.1450866404       -0.0470615958
 C          3.2848981800       -0.3777511797       -0.8483817894
 C          3.3169722789       -1.5728115607       -1.5480285950
 C          4.4402350586       -1.8394690723       -2.3091459384
 C          5.4968748444       -0.9361774206       -2.3856841860
 C          5.4524066659        0.2702676613       -1.7146504701
 C          4.3360864033        0.5591809989       -0.9415554321
 C          3.9469096100        1.6972697137       -0.1521819648
 C          4.5615145920        2.9037274822        0.1541939359
 C          3.9017100477        3.7902192937        0.9830328332
 C          2.6551630411        3.4796881639        1.5195123088
 C          2.0259993804        2.2826111074        1.2318370282
 C          2.6715934895        1.4054194172        0.3765507962
 C          1.0725232108       -1.7296275948        0.9094862231
 Cl         2.5379790476       -2.4748069309        1.4125818162
 H         -2.9007480983       -2.6998072331       -0.7394754840
 H         -5.0030679000       -3.4858495573       -1.7752181171
 H         -6.8919135206       -1.9626598266       -2.1040763465
 H         -6.7356544702        0.4078391413       -1.4171365241
 H         -5.9615746000        2.8171570426       -0.3927225025
 H         -4.7545759749        4.6841410383        0.6926620848
 H         -2.4965849974        4.3557927323        1.5847418079
 H         -1.3500050784        2.1938737850        1.3744137197
 H          2.4946887364       -2.2709487017       -1.5083186817
 H          4.4959185305       -2.7667827453       -2.8593472599
 H          6.3575299754       -1.1818525095       -2.9894850939
 H          6.2629269214        0.9789058279       -1.7908491821
 H          5.5365898069        3.1374598585       -0.2451173364
 H          4.3608748028        4.7356451917        1.2300359996
 H          2.1711046202        4.1856184267        2.1776742002
 H          1.0695461814        2.0385394950        1.6688586151
  51
  -92.7689021200000       0.257361530730001      !
 Cl        -0.2554399835       -3.8838221405        1.8349965544
 C         -0.1631639182       -2.3269788433        1.1334559088
 N         -1.3057618414       -1.7462203134        0.8537543205
 C         -1.3344728881       -0.5411359034        0.2942970932
 N         -2.5794923694       -0.0023837268        0.0544701105
 C         -2.9772607555        1.3109735688        0.2747483032
 C         -2.3114061933        2.3426835758        0.9165001782
 C         -2.9595297402        3.5591332165        1.0329242822
 C         -4.2482233602        3.7441974465        0.5429857763
 C         -4.9376594331        2.7027997790       -0.0476463104
 C         -4.3055608215        1.4739441029       -0.1733885425
 C         -4.7385106564        0.1909106734       -0.6612265153
 C         -5.9269025617       -0.2623591053       -1.2170184542
 C         -6.0219210907       -1.5930378687       -1.5755694093
 C         -4.9514482637       -2.4628715919       -1.3896132663
 C         -3.7571899244       -2.0316568952       -0.8405752537
 C         -3.6622366123       -0.7004091378       -0.4746004825
 C         -0.1434613043        0.1024097322       -0.0816223129
 Cl        -0.1556229967        1.5121210464       -1.0819106599
 C          1.0836118486       -0.4808971845        0.2553506894
 N          2.2799627059        0.1425794211       -0.0673433382
 C          3.2942471177       -0.3905231345       -0.8475654945
 C          3.3376791539       -1.5948377734       -1.5304576601
 C          4.4723257471       -1.8708875805       -2.2710986035
 C          5.5292184956       -0.9677096837       -2.3450913148
 C          5.4737483063        0.2479576748       -1.6917792393
 C          4.3463901604        0.5456861585       -0.9385454579
 C          3.9468408205        1.6933649583       -0.1686295234
 C          4.5586242025        2.9024907120        0.1327413932
 C          3.8887003729        3.7988245524        0.9426423260
 C          2.6350519932        3.4951083333        1.4660936687
 C          2.0091156050        2.2951315195        1.1838163593
 C          2.6647178395        1.4079653773        0.3466210128
 C          1.0723339439       -1.7239233249        0.9084678495
 Cl         2.5376463807       -2.4608247922        1.4247609945
 H         -1.3258800190        2.2066699634        1.3322400843
 H         -2.4551760337        4.3787556575        1.5223648369
 H         -4.7196558422        4.7097926886        0.6475333919
 H         -5.9508925413        2.8338489282       -0.3949983908
 H         -6.7552532293        0.4135392798       -1.3642032990
 H         -6.9387036708       -1.9673073946       -2.0058904474
 H         -5.0557185458       -3.4981263642       -1.6779592591
 H         -2.9329769881       -2.7088294627       -0.6880370927
 H          2.5156051931       -2.2934350786       -1.4937680823
 H          4.5373575940       -2.8063117961       -2.8062841057
 H          6.3994411234       -1.2211400105       -2.9315315625
 H          6.2848870534        0.9561529484       -1.7653355197
 H          5.5390878027        3.1310277166       -0.2561669240
 H          4.3452963903        4.7466942607        1.1849163930
 H          2.1429029804        4.2087933070        2.1097884866
 H          1.0476740529        2.0561077665        1.6123319503
  51
  -92.7688972300000       0.256033234402939      !
 Cl        -0.2742559890       -1.3344423135        4.0720650609
 C         -0.1740110181       -0.8351396544        2.4394724930
 N         -1.3134598483       -0.6376777555        1.8202808436
 C         -1.3363933757       -0.2387022723        0.5528385223
 N         -2.5799725129       -0.0673381497       -0.0149899212
 C         -2.9845647702       -0.4685032353       -1.2824878321
 C         -2.3214327371       -1.2430621908       -2.2206233342
 C         -2.9780083429       -1.5307924852       -3.4038724910
 C         -4.2715245783       -1.0788053549       -3.6446545815
 C         -4.9564149487       -0.3506386019       -2.6909958981
 C         -4.3156764634       -0.0507974445       -1.4971794580
 C         -4.7413869716        0.6125367171       -0.2928234947
 C         -5.9265073011        1.2291724984        0.0846117089
 C         -6.0114820119        1.7753166025        1.3505805967
 C         -4.9343911161        1.7148808186        2.2305306580
 C         -3.7436156946        1.1076891588        1.8741231083
 C         -3.6588009743        0.5542094015        0.6084830101
 C         -0.1429353618        0.0510341134       -0.1290480985
 Cl        -0.1493438715        0.8466747326       -1.6635107544
 C          1.0810864485       -0.1944316856        0.5035835935
 N          2.2815339887        0.0605227275       -0.1432550077
 C          2.6976922063       -0.5172078752       -1.3318536645
 C          2.0710346543       -1.4774951715       -2.1083166681
 C          2.7269903920       -1.9132858727       -3.2447891931
 C          3.9808962534       -1.4183945108       -3.5923906815
 C          4.6206628207       -0.4816340804       -2.8040948445
 C          3.9789072485       -0.0255275493       -1.6607520090
 C          4.3433759626        0.9025310690       -0.6236091395
 C          5.4524566196        1.7100983600       -0.4109627228
 C          5.4707364995        2.5273704572        0.7024264887
 C          4.3956037025        2.5605720244        1.5863786937
 C          3.2792569838        1.7675295067        1.3942451577
 C          3.2729430375        0.9238523727        0.2956282120
 C          1.0646594820       -0.6784408552        1.8216430352
 Cl         2.5286239530       -1.0740309787        2.6317533933
 H         -1.3312337955       -1.6293335828       -2.0369688259
 H         -2.4768137805       -2.1261796001       -4.1522892851
 H         -4.7497001322       -1.3195483917       -4.5820449404
 H         -5.9725772080       -0.0294040216       -2.8612650946
 H         -6.7593831368        1.2797743558       -0.5998262596
 H         -6.9251268561        2.2568023134        1.6658351337
 H         -5.0303833678        2.1504177214        3.2139079304
 H         -2.9140747362        1.0538703087        2.5602293146
 H          1.1088785688       -1.8818430372       -1.8326478633
 H          2.2585407096       -2.6565900714       -3.8724304546
 H          4.4615982413       -1.7830656276       -4.4877829354
 H          5.6009807036       -0.1129382276       -3.0646389395
 H          6.2774664728        1.7003436887       -1.1067898591
 H          6.3252182095        3.1605895948        0.8879548084
 H          4.4315371156        3.2223903419        2.4387300643
 H          2.4427106051        1.8116310500        2.0750227615
  51
  -92.7675068000000       5.878939047405150E-002 !
 Cl        -0.1458716225       -2.6191270189        3.3759959970
 C         -0.1015302663       -1.5954212259        2.0074464976
 N         -1.2583451090       -1.1686788070        1.5603852633
 C         -1.3222057962       -0.3546009502        0.5124468587
 N         -2.5848694739        0.0228926840        0.1057206553
 C         -3.0849774377        0.0197098469       -1.1905603696
 C         -2.5179996495       -0.4693033351       -2.3566457111
 C         -3.2600511468       -0.3822063706       -3.5210835956
 C         -4.5424047209        0.1574648856       -3.5268554099
 C         -5.1319950570        0.5963354597       -2.3570564071
 C         -4.4056956978        0.5180501193       -1.1771798066
 C         -4.7255687704        0.8088302033        0.1956890650
 C         -5.8552250045        1.3156403852        0.8236126967
 C         -5.8365656699        1.4618209892        2.1971342218
 C         -4.7116319910        1.1145486015        2.9401013912
 C         -3.5738837110        0.6120088281        2.3348107341
 C         -3.5936472357        0.4581557248        0.9595986769
 C         -0.1522482792        0.1090765101       -0.1119028236
 Cl        -0.2059010778        1.2804792661       -1.3795412894
 C          1.0887034153       -0.3554233451        0.3390526355
 N          2.2740110462        0.0616593455       -0.2549434200
 C          3.1841118516       -0.7691030583       -0.8873849273
 C          3.1025639143       -2.1294525410       -1.1353519635
 C          4.1469839427       -2.7176495100       -1.8244186863
 C          5.2358960166       -1.9709728077       -2.2668328274
 C          5.3061929463       -0.6099284246       -2.0422722047
 C          4.2712204351        0.0032362992       -1.3489337150
 C          4.0065095799        1.3618941140       -0.9578179992
 C          4.7080601024        2.5515084233       -1.1003956974
 C          4.1679822931        3.7052794706       -0.5668457847
 C          2.9552708668        3.6813090448        0.1168774033
 C          2.2392216977        2.5089818153        0.2740706421
 C          2.7646504092        1.3563409251       -0.2867196362
 C          1.1145467152       -1.2452506974        1.4239534879
 Cl         2.6093201919       -1.8130169856        2.0530282242
 H         -1.5385539515       -0.9217987081       -2.3632037752
 H         -2.8358194201       -0.7498033377       -4.4434188413
 H         -5.0887520102        0.2121047114       -4.4564596674
 H         -6.1402821144        0.9810858645       -2.3536617674
 H         -6.7263546372        1.5880277397        0.2475287543
 H         -6.7060456365        1.8504006614        2.7058353357
 H         -4.7277829165        1.2384991456        4.0125302754
 H         -2.7065852077        0.3350103400        2.9120992354
 H          2.2548584656       -2.7109635678       -0.8050152850
 H          4.1152569494       -3.7779069165       -2.0259012298
 H          6.0325761165       -2.4671730627       -2.8005416160
 H          6.1440635033       -0.0307799567       -2.3993668226
 H          5.6576230006        2.5679777948       -1.6132066724
 H          4.6962972164        4.6412646283       -0.6696243070
 H          2.5668409123        4.5967215635        0.5376386583
 H          1.3078384303        2.4948222434        0.8198917048
  51
  -92.7674943300000       5.801871986905117E-002 !
 Cl        -0.3323321982       -3.1459990302        2.8786604047
 C         -0.2139115795       -1.8690502010        1.7479586110
 N         -1.3422419436       -1.4325517718        1.2410759331
 C         -1.3480641254       -0.4554506325        0.3411468480
 N         -2.5846073205       -0.0545818458       -0.1198688962
 C         -3.5975718768       -0.9204363184       -0.5211035257
 C         -3.6100168681       -2.3040028976       -0.5504833532
 C         -4.7429993589       -2.9247977233       -1.0449162298
 C         -5.8320954153       -2.1897305276       -1.5047977028
 C         -5.8182077642       -0.8086193844       -1.4833361934
 C         -4.6927832380       -0.1647231874       -0.9872323404
 C         -4.3473969637        1.2208539456       -0.8071487779
 C         -5.0358252889        2.4058442539       -1.0257412506
 C         -4.4326869929        3.5964213805       -0.6690641487
 C         -3.1762291003        3.6090781170       -0.0715328299
 C         -2.4722813407        2.4399318802        0.1553784848
 C         -3.0492247524        1.2480108900       -0.2533527772
 C         -0.1456065188        0.1025416522       -0.1246825778
 Cl        -0.1228380320        1.2702071110       -1.3970225457
 C          1.0651154536       -0.3350512700        0.4248479074
 N          2.2802482057        0.1991481899        0.0137782024
 C          2.8205602482        0.1315906302       -1.2598620015
 C          2.3278235748       -0.4967385176       -2.3919239216
 C          3.0911139020       -0.4332668108       -3.5431670202
 C          4.3187186085        0.2231976032       -3.5654452857
 C          4.8266471576        0.8222850282       -2.4293217020
 C          4.0770000465        0.7750216567       -1.2617418635
 C          4.2992044949        1.2527017918        0.0766961959
 C          5.3271744289        1.9637882416        0.6812108972
 C          5.2113787038        2.2830486919        2.0200237014
 C          4.0837851851        1.9183301870        2.7510538437
 C          3.0454648573        1.2137306657        2.1704558235
 C          3.1727111245        0.8689843568        0.8348777889
 C          1.0288837538       -1.3448842727        1.3990859928
 Cl         2.4843732503       -1.9631240248        2.0722760814
 H         -2.7714007739       -2.8747822470       -0.1857503530
 H         -4.7837648419       -4.0033637307       -1.0732161681
 H         -6.6993658444       -2.7105813067       -1.8822059124
 H         -6.6612705259       -0.2385803448       -1.8427644520
 H         -6.0260713226        2.3913124541       -1.4546233527
 H         -4.9488618171        4.5302083642       -0.8341138366
 H         -2.7425155430        4.5507385341        0.2302567288
 H         -1.5145353848        2.4640764016        0.6515934468
 H          1.3851954649       -1.0228464542       -2.3783969411
 H          2.7280779386       -0.9072036172       -4.4428943958
 H          4.8840609033        0.2525731460       -4.4848202004
 H          5.7875794155        1.3135545669       -2.4423294434
 H          6.1948662180        2.2609903427        0.1122385214
 H          6.0019529434        2.8314192924        2.5099620192
 H          4.0166108190        2.1935712483        3.7929332208
 H          2.1681995453        0.9447913460        2.7396115251
  51
  -92.7674897600000       5.773882154860031E-002 !
 Cl        -0.2602726606       -4.2833711419        0.2720056230
 C         -0.1670355531       -2.5824191967        0.1268418364
 N         -1.3080202592       -1.9418011399        0.0317129721
 C         -1.3346130879       -0.6176770524       -0.0691936527
 N         -2.5790133457       -0.0329773900       -0.1803500218
 C         -3.6689985017       -0.3292097733        0.6318688737
 C         -3.7713443953       -1.2457151627        1.6637038646
 C         -4.9700773554       -1.3053103991        2.3514295007
 C         -6.0362786713       -0.4712052326        2.0264242813
 C         -5.9337319935        0.4478242781        1.0002304866
 C         -4.7411626975        0.5217698341        0.2934021555
 C         -4.2965071082        1.3299436993       -0.8115766100
 C         -4.9187353152        2.2912862636       -1.5956493152
 C         -4.2162983288        2.8392813909       -2.6514692266
 C         -2.9239879736        2.4158094362       -2.9462419629
 C         -2.2842414562        1.4599690744       -2.1775438063
 C         -2.9654849250        0.9477138922       -1.0848376473
 C         -0.1476919316        0.1327989352       -0.0276547041
 Cl        -0.1701102755        1.8595959627       -0.0171380850
 C          1.0783478014       -0.5371748229        0.0564994113
 N          2.2782807898        0.1621997128        0.0980388612
 C          3.2916857296        0.0728457996       -0.8419921676
 C          3.3357402600       -0.6596058292       -2.0168467828
 C          4.4682171111       -0.5427289658       -2.8014671489
 C          5.5219640184        0.2906457097       -2.4354282709
 C          5.4682494416        1.0409176272       -1.2770122197
 C          4.3434274487        0.9371644143       -0.4699633218
 C          3.9463841518        1.5629751146        0.7628778752
 C          4.5592121773        2.4725442315        1.6141035798
 C          3.8940636432        2.8547080678        2.7625295058
 C          2.6439807083        2.3287030826        3.0774175750
 C          2.0141649648        1.4199589270        2.2470690480
 C          2.6659615164        1.0600528165        1.0787260227
 C          1.0690021687       -1.9390841372        0.1215500271
 Cl         2.5390599365       -2.8160513379        0.2733246254
 H         -2.9492047411       -1.8981632814        1.9102047418
 H         -5.0814245460       -2.0154710172        3.1570281889
 H         -6.9559614959       -0.5470026021        2.5870709073
 H         -6.7591280353        1.0969397964        0.7506673018
 H         -5.9337968925        2.5929973883       -1.3876227785
 H         -4.6799186636        3.5917238032       -3.2715799301
 H         -2.4102368170        2.8357316421       -3.7979776635
 H         -1.2944493019        1.1179015260       -2.4376588724
 H          2.5161996853       -1.2970012606       -2.3131894480
 H          4.5348070508       -1.1079782228       -3.7189366830
 H          6.3899972659        0.3540654848       -3.0748199433
 H          6.2792739573        1.6980525287       -1.0026236088
 H          5.5371594675        2.8659490620        1.3813969863
 H          4.3518548231        3.5640605219        3.4356209184
 H          2.1562435551        2.6337127198        3.9910449416
 H          1.0521083824        1.0037692722        2.5057141250
  51
  -92.7673972600000       5.235496323750086E-002 !
 Cl        -0.3256520553       -3.1134765927        2.9262473117
 C         -0.2130065817       -1.8325624186        1.7988680723
 N         -1.3425920837       -1.4082696813        1.2841037298
 C         -1.3522643696       -0.4234345855        0.3931580330
 N         -2.5877127017       -0.0469105716       -0.0941659798
 C         -3.5465074071       -0.9313978811       -0.5764386557
 C         -3.4996648113       -2.3117002200       -0.6664681102
 C         -4.5805608889       -2.9532433074       -1.2434950309
 C         -5.6758573124       -2.2407194212       -1.7244145053
 C         -5.7214875482       -0.8627073154       -1.6402579000
 C         -4.6489947662       -0.1979644354       -1.0609680564
 C         -4.3663012007        1.1903446414       -0.8079106366
 C         -5.0901391310        2.3579999841       -1.0050217100
 C         -4.5465290900        3.5532162387       -0.5756779550
 C         -3.3122560759        3.5874675393        0.0662224653
 C         -2.5727591666        2.4365655869        0.2714292232
 C         -3.0931164020        1.2419455944       -0.2002136539
 C         -0.1544322915        0.1594275922       -0.0511538950
 Cl        -0.1436994610        1.3641794507       -1.2882501632
 C          1.0599577133       -0.2856769065        0.4849044176
 N          2.2709740840        0.2294659941        0.0399888413
 C          2.7593829271        0.1300406661       -1.2531022716
 C          2.2049384815       -0.5008834745       -2.3546469110
 C          2.9254178153       -0.4798673879       -3.5346314222
 C          4.1699034504        0.1391812676       -3.6141849011
 C          4.7381839112        0.7411926747       -2.5085344824
 C          4.0331283551        0.7346551081       -1.3125036784
 C          4.3221614231        1.2191567621        0.0107052502
 C          5.3960226629        1.9022969276        0.5652741757
 C          5.3470092668        2.2340942118        1.9051545443
 C          4.2408918064        1.9088970229        2.6859011614
 C          3.1569852780        1.2339911692        2.1551331364
 C          3.2162185938        0.8769411451        0.8180482376
 C          1.0280898354       -1.3016569487        1.4527151269
 Cl         2.4860925127       -1.9251177560        2.1148584769
 H         -2.6551407352       -2.8644163296       -0.2871117988
 H         -4.5748357803       -4.0300486117       -1.3223013695
 H         -6.5003831057       -2.7773677103       -2.1693942424
 H         -6.5690468152       -0.3106669736       -2.0169731827
 H         -6.0621241731        2.3260751232       -1.4731137277
 H         -5.0923290057        4.4735052652       -0.7201491051
 H         -2.9256511187        4.5314928918        0.4200642569
 H         -1.6312588994        2.4736706971        0.7973746351
 H          1.2487232173       -0.9988076847       -2.2964498963
 H          2.5149048436       -0.9587142589       -4.4109936336
 H          4.7009400854        0.1356123249       -4.5542263170
 H          5.7122868780        1.2022882020       -2.5665450605
 H          6.2475995511        2.1679947692       -0.0422878914
 H          6.1744823744        2.7603245174        2.3569480148
 H          4.2275827844        2.1916527116        3.7278680065
 H          2.2970966438        0.9957582516        2.7629933166
