  51
        -92.76891068
 Cl        -0.2574173191       -3.8963886754        1.8169810171
 C         -0.1635788843       -2.3339094800        1.1276898917
 N         -1.3054834164       -1.7513724025        0.8490992118
 C         -1.3328850294       -0.5410816317        0.3008306940
 N         -2.5774833176       -0.0045552343        0.0537164570
 C         -3.6482476817       -0.7005958771       -0.5010550943
 C         -3.7278804279       -2.0258207678       -0.8917873831
 C         -4.9106806799       -2.4554039225       -1.4663316395
 C         -5.9846357661       -1.5896192512       -1.6529054855
 C         -5.9047622602       -0.2649946534       -1.2693173055
 C         -4.7278925275        0.1866473052       -0.6878224289
 C         -4.3096911927        1.4644186964       -0.1737439273
 C         -4.9513832761        2.6870447849       -0.0359603997
 C         -4.2753168724        3.7234785474        0.5784904535
 C         -2.9902657439        3.5396668280        1.0787828878
 C         -2.3327339157        2.3293133713        0.9513232383
 C         -2.9857530751        1.3029436395        0.2880883764
 C         -0.1412391417        0.1091219478       -0.0603130947
 Cl        -0.1506864266        1.5337408656       -1.0393237716
 C          1.0848130427       -0.4789864279        0.2712728313
 N          2.2820595633        0.1450866404       -0.0470615958
 C          3.2848981800       -0.3777511797       -0.8483817894
 C          3.3169722789       -1.5728115607       -1.5480285950
 C          4.4402350586       -1.8394690723       -2.3091459384
 C          5.4968748444       -0.9361774206       -2.3856841860
 C          5.4524066659        0.2702676613       -1.7146504701
 C          4.3360864033        0.5591809989       -0.9415554321
 C          3.9469096100        1.6972697137       -0.1521819648
 C          4.5615145920        2.9037274822        0.1541939359
 C          3.9017100477        3.7902192937        0.9830328332
 C          2.6551630411        3.4796881639        1.5195123088
 C          2.0259993804        2.2826111074        1.2318370282
 C          2.6715934895        1.4054194172        0.3765507962
 C          1.0725232108       -1.7296275948        0.9094862231
 Cl         2.5379790476       -2.4748069309        1.4125818162
 H         -2.9007480983       -2.6998072331       -0.7394754840
 H         -5.0030679000       -3.4858495573       -1.7752181171
 H         -6.8919135206       -1.9626598266       -2.1040763465
 H         -6.7356544702        0.4078391413       -1.4171365241
 H         -5.9615746000        2.8171570426       -0.3927225025
 H         -4.7545759749        4.6841410383        0.6926620848
 H         -2.4965849974        4.3557927323        1.5847418079
 H         -1.3500050784        2.1938737850        1.3744137197
 H          2.4946887364       -2.2709487017       -1.5083186817
 H          4.4959185305       -2.7667827453       -2.8593472599
 H          6.3575299754       -1.1818525095       -2.9894850939
 H          6.2629269214        0.9789058279       -1.7908491821
 H          5.5365898069        3.1374598585       -0.2451173364
 H          4.3608748028        4.7356451917        1.2300359996
 H          2.1711046202        4.1856184267        2.1776742002
 H          1.0695461814        2.0385394950        1.6688586151
  51
        -92.76750680
 Cl        -0.1458716225       -2.6191270189        3.3759959970
 C         -0.1015302663       -1.5954212259        2.0074464976
 N         -1.2583451090       -1.1686788070        1.5603852633
 C         -1.3222057962       -0.3546009502        0.5124468587
 N         -2.5848694739        0.0228926840        0.1057206553
 C         -3.0849774377        0.0197098469       -1.1905603696
 C         -2.5179996495       -0.4693033351       -2.3566457111
 C         -3.2600511468       -0.3822063706       -3.5210835956
 C         -4.5424047209        0.1574648856       -3.5268554099
 C         -5.1319950570        0.5963354597       -2.3570564071
 C         -4.4056956978        0.5180501193       -1.1771798066
 C         -4.7255687704        0.8088302033        0.1956890650
 C         -5.8552250045        1.3156403852        0.8236126967
 C         -5.8365656699        1.4618209892        2.1971342218
 C         -4.7116319910        1.1145486015        2.9401013912
 C         -3.5738837110        0.6120088281        2.3348107341
 C         -3.5936472357        0.4581557248        0.9595986769
 C         -0.1522482792        0.1090765101       -0.1119028236
 Cl        -0.2059010778        1.2804792661       -1.3795412894
 C          1.0887034153       -0.3554233451        0.3390526355
 N          2.2740110462        0.0616593455       -0.2549434200
 C          3.1841118516       -0.7691030583       -0.8873849273
 C          3.1025639143       -2.1294525410       -1.1353519635
 C          4.1469839427       -2.7176495100       -1.8244186863
 C          5.2358960166       -1.9709728077       -2.2668328274
 C          5.3061929463       -0.6099284246       -2.0422722047
 C          4.2712204351        0.0032362992       -1.3489337150
 C          4.0065095799        1.3618941140       -0.9578179992
 C          4.7080601024        2.5515084233       -1.1003956974
 C          4.1679822931        3.7052794706       -0.5668457847
 C          2.9552708668        3.6813090448        0.1168774033
 C          2.2392216977        2.5089818153        0.2740706421
 C          2.7646504092        1.3563409251       -0.2867196362
 C          1.1145467152       -1.2452506974        1.4239534879
 Cl         2.6093201919       -1.8130169856        2.0530282242
 H         -1.5385539515       -0.9217987081       -2.3632037752
 H         -2.8358194201       -0.7498033377       -4.4434188413
 H         -5.0887520102        0.2121047114       -4.4564596674
 H         -6.1402821144        0.9810858645       -2.3536617674
 H         -6.7263546372        1.5880277397        0.2475287543
 H         -6.7060456365        1.8504006614        2.7058353357
 H         -4.7277829165        1.2384991456        4.0125302754
 H         -2.7065852077        0.3350103400        2.9120992354
 H          2.2548584656       -2.7109635678       -0.8050152850
 H          4.1152569494       -3.7779069165       -2.0259012298
 H          6.0325761165       -2.4671730627       -2.8005416160
 H          6.1440635033       -0.0307799567       -2.3993668226
 H          5.6576230006        2.5679777948       -1.6132066724
 H          4.6962972164        4.6412646283       -0.6696243070
 H          2.5668409123        4.5967215635        0.5376386583
 H          1.3078384303        2.4948222434        0.8198917048
  51
        -92.76739726
 Cl        -0.3256520553       -3.1134765927        2.9262473117
 C         -0.2130065817       -1.8325624186        1.7988680723
 N         -1.3425920837       -1.4082696813        1.2841037298
 C         -1.3522643696       -0.4234345855        0.3931580330
 N         -2.5877127017       -0.0469105716       -0.0941659798
 C         -3.5465074071       -0.9313978811       -0.5764386557
 C         -3.4996648113       -2.3117002200       -0.6664681102
 C         -4.5805608889       -2.9532433074       -1.2434950309
 C         -5.6758573124       -2.2407194212       -1.7244145053
 C         -5.7214875482       -0.8627073154       -1.6402579000
 C         -4.6489947662       -0.1979644354       -1.0609680564
 C         -4.3663012007        1.1903446414       -0.8079106366
 C         -5.0901391310        2.3579999841       -1.0050217100
 C         -4.5465290900        3.5532162387       -0.5756779550
 C         -3.3122560759        3.5874675393        0.0662224653
 C         -2.5727591666        2.4365655869        0.2714292232
 C         -3.0931164020        1.2419455944       -0.2002136539
 C         -0.1544322915        0.1594275922       -0.0511538950
 Cl        -0.1436994610        1.3641794507       -1.2882501632
 C          1.0599577133       -0.2856769065        0.4849044176
 N          2.2709740840        0.2294659941        0.0399888413
 C          2.7593829271        0.1300406661       -1.2531022716
 C          2.2049384815       -0.5008834745       -2.3546469110
 C          2.9254178153       -0.4798673879       -3.5346314222
 C          4.1699034504        0.1391812676       -3.6141849011
 C          4.7381839112        0.7411926747       -2.5085344824
 C          4.0331283551        0.7346551081       -1.3125036784
 C          4.3221614231        1.2191567621        0.0107052502
 C          5.3960226629        1.9022969276        0.5652741757
 C          5.3470092668        2.2340942118        1.9051545443
 C          4.2408918064        1.9088970229        2.6859011614
 C          3.1569852780        1.2339911692        2.1551331364
 C          3.2162185938        0.8769411451        0.8180482376
 C          1.0280898354       -1.3016569487        1.4527151269
 Cl         2.4860925127       -1.9251177560        2.1148584769
 H         -2.6551407352       -2.8644163296       -0.2871117988
 H         -4.5748357803       -4.0300486117       -1.3223013695
 H         -6.5003831057       -2.7773677103       -2.1693942424
 H         -6.5690468152       -0.3106669736       -2.0169731827
 H         -6.0621241731        2.3260751232       -1.4731137277
 H         -5.0923290057        4.4735052652       -0.7201491051
 H         -2.9256511187        4.5314928918        0.4200642569
 H         -1.6312588994        2.4736706971        0.7973746351
 H          1.2487232173       -0.9988076847       -2.2964498963
 H          2.5149048436       -0.9587142589       -4.4109936336
 H          4.7009400854        0.1356123249       -4.5542263170
 H          5.7122868780        1.2022882020       -2.5665450605
 H          6.2475995511        2.1679947692       -0.0422878914
 H          6.1744823744        2.7603245174        2.3569480148
 H          4.2275827844        2.1916527116        3.7278680065
 H          2.2970966438        0.9957582516        2.7629933166
