  56
  -91.3298924580000       0.182167796298549      !
 O          0.0972274922        4.2772497805       -2.3138410554
 C         -0.3097809762        3.1925698310       -2.6515825021
 O         -1.2726288049        3.0593433800       -3.5824134098
 C          0.1657698764        1.9063756048       -2.1089339990
 C          1.1420986795        1.9204390620       -1.1138381708
 C          1.5966682649        0.7387142136       -0.5705958451
 C          1.0719830441       -0.4826515347       -0.9951907268
 C          1.5553941119       -1.7368109277       -0.3998930371
 C          0.7320480108       -2.7362716097       -0.0236608914
 C         -0.7128310763       -2.7406270080       -0.0241987788
 C         -1.5408516664       -1.7556011004        0.3786830929
 C         -2.9966798995       -1.8945210164        0.2410155910
 C         -3.8488670262       -1.3936099965        1.2251809718
 C         -5.2188690171       -1.5236677265        1.1025633952
 C         -5.7639019387       -2.1466981045       -0.0082608238
 C         -4.9281970877       -2.6406758539       -0.9960788094
 C         -3.5571491592       -2.5180888718       -0.8729551466
 C         -1.0604571109       -0.5134808531        1.0017749052
 C         -1.5862199889        0.7151579099        0.6017438712
 C         -1.1340579979        1.8911210904        1.1622403813
 C         -0.1553528202        1.8571332713        2.1527926702
 C          0.3815074958        3.0913668177        2.7589708470
 O          1.2715647825        3.1243984801        3.5743309463
 O         -0.2142906924        4.2085804444        2.3142107955
 C          0.3475761416        0.6297810298        2.5830819906
 C         -0.1029588930       -0.5413760184        2.0156630868
 C          3.0115474223       -1.8707080186       -0.2591233827
 C          3.5699011551       -2.5133202078        0.8449343136
 C          4.9410113393       -2.6301591905        0.9726048465
 C          5.7785872115       -2.1116535235       -0.0009215187
 C          5.2355181792       -1.4697410536       -1.1018812848
 C          3.8653984166       -1.3454211374       -1.2289124578
 C          0.1161491096       -0.4910315328       -2.0109461769
 C         -0.3361997157        0.6878806137       -2.5628953215
 H         -1.5403790438        3.9366315325       -3.8968916646
 H          1.5294940966        2.8717437562       -0.7824978202
 H          2.3486243174        0.7522866288        0.2043307599
 H          1.1824043694       -3.6755499806        0.2783635796
 H         -1.1579342113       -3.6754976870       -0.3469726259
 H         -3.4276799202       -0.9125312860        2.0963539949
 H         -5.8654970502       -1.1368556339        1.8765601537
 H         -6.8350372146       -2.2436620366       -0.1054095751
 H         -5.3478940337       -3.1190663495       -1.8692047505
 H         -2.9130448168       -2.8866534173       -1.6580289912
 H         -2.3400798475        0.7403100397       -0.1715364464
 H         -1.5277909922        2.8409864220        0.8367646226
 H          0.1929475459        4.9842818213        2.7297060964
 H          1.0925106239        0.6217642201        3.3645111461
 H          0.2800489215       -1.4917979676        2.3560057598
 H          2.9240570603       -2.9016792296        1.6188800783
 H          5.3590826579       -3.1231410538        1.8381470377
 H          6.8496401215       -2.2043577966        0.0996345805
 H          5.8836013498       -1.0632366099       -1.8643955251
 H          3.4459430496       -0.8492337463       -2.0924108266
 H         -0.2646170962       -1.4358424552       -2.3695393135
 H         -1.0770245304        0.6769676644       -3.3471731057
  56
  -91.3298247446000       0.169571429230296      !
 O          0.0434730972        4.2551316388       -2.3494276484
 C         -0.3483856132        3.1644606663       -2.6859962315
 O         -1.3026279058        3.0165031275       -3.6234127826
 C          0.1375042936        1.8858664154       -2.1345380587
 C          1.1136076228        1.9142637553       -1.1395033759
 C          1.5774198089        0.7398207435       -0.5882234044
 C          1.0624886440       -0.4884028797       -1.0046377786
 C          1.5527766573       -1.7352975230       -0.3996086314
 C          0.7326525607       -2.7359554369       -0.0196030870
 C         -0.7124794840       -2.7397913513       -0.0239628298
 C         -1.5369929130       -1.7525469590        0.3807089711
 C         -2.9928575649       -1.8795872285        0.2338770143
 C         -3.8476324592       -1.3769093909        1.2149028533
 C         -5.2178758230       -1.4920388403        1.0805641549
 C         -5.7603669708       -2.1021765419       -0.0386745241
 C         -4.9219385413       -2.5984498994       -1.0230160734
 C         -3.5507394186       -2.4904691021       -0.8884204422
 C         -1.0501986328       -0.5172407368        1.0123408343
 C         -1.5674127796        0.7175759043        0.6203296996
 C         -1.1071589864        1.8867824613        1.1884144420
 C         -0.1286553338        1.8396941027        2.1786590117
 C          0.4163502212        3.0658988680        2.7937709117
 O          1.3035999814        3.0867848620        3.6125580807
 O         -0.1673258113        4.1908625030        2.3524019352
 C          0.3656661496        0.6060605047        2.6011245543
 C         -0.0931991945       -0.5581675038        2.0263666058
 C          3.0089971197       -1.8581314347       -0.2515830865
 C          3.8640199293       -1.3310266526       -1.2194005943
 C          5.2344082858       -1.4411036912       -1.0826133129
 C          5.7764623774       -2.0710623545        0.0257948831
 C          4.9375887547       -2.5920456598        0.9969420794
 C          3.5662658730       -2.4892414342        0.8597073628
 C          0.1075870230       -0.5110938909       -2.0211156790
 C         -0.3543472781        0.6603493593       -2.5807672721
 H         -1.5784141897        3.8894090786       -3.9430287439
 H          1.4927732698        2.8708650129       -0.8139410756
 H          2.3286497754        0.7644326396        0.1871588024
 H          1.1842382208       -3.6725212613        0.2884347788
 H         -1.1594094700       -3.6716218117       -0.3527933349
 H         -3.4285137186       -0.9053631973        2.0921832687
 H         -5.8666873036       -1.1033380240        1.8517633068
 H         -6.8316009693       -2.1871285548       -0.1451118762
 H         -5.3394895941       -3.0674578086       -1.9021337162
 H         -2.9040946194       -2.8622788533       -1.6698006400
 H         -2.3207756739        0.7530014375       -0.1530156481
 H         -1.4944596359        2.8413407482        0.8690742179
 H          0.2445516676        4.9605329314        2.7745298337
 H          1.1103052900        0.5877709506        3.3826644824
 H          0.2824347737       -1.5134086525        2.3614333693
 H          3.4454643723       -0.8431726479       -2.0880896568
 H          5.8835459651       -1.0323695291       -1.8430711421
 H          6.8478003308       -2.1512600620        0.1346736809
 H          5.3547500578       -3.0754147085        1.8683149802
 H          2.9191512835       -2.8788687657        1.6318886370
 H         -0.2655549592       -1.4612166383       -2.3735067293
 H         -1.0946796007        0.6382335777       -3.3652242680
  56
  -91.3295036776000       0.120725914435923      !
 O         -1.2236918472        3.2086274791       -3.5034212373
 C         -0.3583085970        3.1521000817       -2.6632685627
 O          0.2092937187        4.2613116411       -2.1594222789
 C          0.1735542082        1.9030595631       -2.0868662180
 C          1.1522748372        1.9093134676       -1.0954691599
 C          1.6023296805        0.7190099444       -0.5650723013
 C          1.0737404963       -0.4979786851       -0.9963432858
 C          1.5545334031       -1.7553690229       -0.4054732206
 C          0.7286284923       -2.7503890801       -0.0234043501
 C         -0.7160080859       -2.7512305099       -0.0181905214
 C         -1.5446417905       -1.7632585707        0.3765508356
 C         -3.0006053034       -1.9084605321        0.2430931233
 C         -3.8520090221       -1.4063977594        1.2273184978
 C         -5.2217848396       -1.5428547192        1.1093500774
 C         -5.7671963714       -2.1738897922        0.0032217109
 C         -4.9322631041       -2.6689327360       -0.9846644226
 C         -3.5613524477       -2.5398078510       -0.8662316274
 C         -1.0697563311       -0.5126462377        0.9858819768
 C         -1.6086655205        0.7079786244        0.5779069865
 C         -1.1660465117        1.8921581568        1.1279877124
 C         -0.1837690968        1.8760745087        2.1158071921
 C          0.3398478599        3.1185124561        2.7136762537
 O          1.2056915994        3.1659971765        3.5540133187
 O         -0.2345520764        4.2326041927        2.2290204248
 C          0.3322656631        0.6566565161        2.5538664013
 C         -0.1083295450       -0.5230496276        1.9965888308
 C          3.0110695207       -1.8946326792       -0.2743515521
 C          3.5758721316       -2.5384466961        0.8257392816
 C          4.9477358709       -2.6562870732        0.9446326343
 C          5.7795981405       -2.1376857948       -0.0337236970
 C          5.2300412496       -1.4959541304       -1.1316177919
 C          3.8592659764       -1.3707146553       -1.2499496402
 C          0.1161956140       -0.4982410272       -2.0106381754
 C         -0.3312877448        0.6877808962       -2.5488165002
 H         -0.1873640094        5.0431571836       -2.5737921470
 H          1.5518242113        2.8487929429       -0.7478135538
 H          2.3567233251        0.7237958548        0.2078039637
 H          1.1767653730       -3.6914476691        0.2763252120
 H         -1.1630704852       -3.6884773513       -0.3312908893
 H         -3.4304991666       -0.9186651088        2.0946039725
 H         -5.8678534061       -1.1544174066        1.8829769722
 H         -6.8381306766       -2.2755097791       -0.0904928240
 H         -5.3523711097       -3.1533923746       -1.8540491071
 H         -2.9180209625       -2.9103682870       -1.6509193620
 H         -2.3653445507        0.7208523354       -0.1926917478
 H         -1.5736453772        2.8346435146        0.7981144393
 H          0.1575706522        5.0096827162        2.6565240160
 H          1.0788884623        0.6616800593        3.3337087743
 H          0.2847388322       -1.4669817566        2.3434105198
 H          2.9346443370       -2.9271616677        1.6033241129
 H          5.3709785914       -3.1504340126        1.8070226418
 H          6.8512846994       -2.2300199328        0.0607276791
 H          5.8736423674       -1.0896049113       -1.8980668337
 H          3.4346413515       -0.8728031439       -2.1098919493
 H         -0.2687241378       -1.4389911115       -2.3748846074
 H         -1.0745571461        0.7009709997       -3.3317470764
  56
  -91.3294140479000       0.109801821707854      !
 O         -0.8153284265        1.5149553604       -6.6744519466
 C         -0.0259739005        0.6619435632       -6.3493798099
 O          0.5329595114       -0.1639054033       -7.2514351085
 C          0.4204624902        0.4123637192       -4.9652364490
 C         -0.0943828868        1.2101842773       -3.9444096321
 C          0.2928877257        1.0025452915       -2.6377014147
 C          1.2037470304       -0.0070448589       -2.3196008542
 C          1.6155428810       -0.2540529284       -0.9316005820
 C          0.7205025684       -0.3328527268        0.0834024875
 C         -0.6991137073       -0.3348476048       -0.0712455863
 C         -1.5987082004       -0.2574103550        0.9394061054
 C         -3.0350784366       -0.4076841695        0.6832529779
 C         -3.5099766945       -1.2624559624       -0.3121588269
 C         -4.8659938708       -1.3863107905       -0.5460253568
 C         -5.7743655283       -0.6594657064        0.2060257449
 C         -5.3161292984        0.1915263415        1.1983071868
 C         -3.9612413167        0.3146939918        1.4378965467
 C         -1.2002449274       -0.0072243649        2.3305444655
 C         -0.2972314641        1.0065329153        2.6561841795
 C          0.0699834998        1.2310309043        3.9671596722
 C         -0.4606042043        0.4401499646        4.9840444681
 C         -0.0967225774        0.6432472048        6.3996371027
 O         -0.5189477589       -0.0139037671        7.3198495428
 O          0.7715969911        1.6521240595        6.5917331676
 C         -1.3692492659       -0.5701786939        4.6674822243
 C         -1.7384617688       -0.7859912429        3.3582181368
 C          3.0536280081       -0.4031305184       -0.6860317872
 C          3.5365684351       -1.2573623667        0.3060533940
 C          4.8945344833       -1.3818674594        0.5285654641
 C          5.7968863043       -0.6563187977       -0.2318504824
 C          5.3306649956        0.1939979519       -1.2212283842
 C          3.9738809483        0.3177950292       -1.4495079063
 C          1.7294736174       -0.7892494925       -3.3507589104
 C          1.3404726252       -0.5891360919       -4.6580052504
 H          0.1993518808        0.0512628762       -8.1359919165
 H         -0.7968733707        1.9887899844       -4.2004394174
 H         -0.0912137089        1.6372241557       -1.8527440726
 H          1.0972390336       -0.4491557215        1.0909646415
 H         -1.0736481710       -0.4527604170       -1.0793480025
 H         -2.8120747716       -1.8513690407       -0.8890129926
 H         -5.2174699504       -2.0570745988       -1.3163713678
 H         -6.8336512356       -0.7583060640        0.0214141630
 H         -6.0183605582        0.7619546487        1.7883492031
 H         -3.6101494099        0.9875795527        2.2071212201
 H          0.0969941575        1.6357784936        1.8717301133
 H          0.7647071902        2.0187986064        4.2131759781
 H          0.9669534830        1.7331570318        7.5379631163
 H         -1.7728913559       -1.1709550729        5.4683112921
 H         -2.4407712904       -1.5696804685        3.1142314012
 H          2.8432065371       -1.8452165284        0.8892505801
 H          5.2519527966       -2.0520768093        1.2965678399
 H          6.8577345754       -0.7548346424       -0.0559816711
 H          6.0287213176        0.7642085689       -1.8169352904
 H          3.6163125491        0.9906176952       -2.2159710403
 H          2.4387624491       -1.5683193809       -3.1110686611
 H          1.7424391608       -1.2022776861       -5.4494314128
  56
  -91.3294072656000       0.109016595747645      !
 O          0.6823030140        0.3872966747       -7.2730746811
 C          0.2517818673        0.9795159311       -6.3135054535
 O         -0.6034799538        2.0092230830       -6.4438723599
 C          0.5897007764        0.6687206311       -4.9110685339
 C          0.0528824716        1.3919600766       -3.8481155317
 C          0.3917286788        1.0655753288       -2.5511878886
 C          1.2715602991        0.0144483813       -2.2847705222
 C          1.6325771107       -0.3441122385       -0.9076977007
 C          0.7074894809       -0.4537451689        0.0766648297
 C         -0.7074178842       -0.4026181796       -0.1136915113
 C         -1.6272185056       -0.3092040652        0.8772150149
 C         -3.0610059554       -0.4129129841        0.5858326018
 C         -3.9826879754        0.3422302373        1.3131192603
 C         -5.3338047844        0.2634094785        1.0359826454
 C         -5.7927118045       -0.5755522728        0.0336173533
 C         -4.8889359698       -1.3356879297       -0.6904527732
 C         -3.5364402792       -1.2556257999       -0.4195399859
 C         -1.2500815222       -0.0758460429        2.2766721836
 C         -1.8467046045       -0.8232950280        3.2951018058
 C         -1.5016643100       -0.6218691645        4.6144471597
 C         -0.5550008509        0.3463482096        4.9467288056
 C         -0.1602937470        0.6034390484        6.3452195324
 O          0.6469480992        1.4313669043        6.6912223191
 O         -0.7920717623       -0.1825612929        7.2347461681
 C          0.0355270632        1.1057378897        3.9375733208
 C         -0.3076760094        0.8963473183        2.6190289674
 C          3.0563953924       -0.5620446778       -0.6312998639
 C          4.0258577763        0.1847126064       -1.3029975701
 C          5.3687878412       -0.0048239918       -1.0401176021
 C          5.7710173813       -0.9478644064       -0.1083644076
 C          4.8189834326       -1.7005370902        0.5594942490
 C          3.4747903351       -1.5100188669        0.3030937608
 C          1.8182779643       -0.6944574823       -3.3576466242
 C          1.4776103665       -0.3763436930       -4.6537867018
 H         -0.7834736323        2.1620969989       -7.3842036939
 H         -0.6239003136        2.2080098289       -4.0477354676
 H         -0.0075676638        1.6423022618       -1.7298674001
 H          1.0524123892       -0.6392232849        1.0854329315
 H         -1.0601540820       -0.4913902096       -1.1328822420
 H         -3.6302873394        1.0064829273        2.0891831548
 H         -6.0329225502        0.8599255589        1.6036669498
 H         -6.8492146896       -0.6380606370       -0.1812150775
 H         -5.2410654186       -1.9978940510       -1.4680097969
 H         -2.8421502276       -1.8697314244       -0.9740866223
 H         -2.5782531281       -1.5752226079        3.0366812991
 H         -1.9600397873       -1.2069759291        5.3961847668
 H         -0.4908236177        0.0361797276        8.1300323338
 H          0.7589267239        1.8583040283        4.2128366091
 H          0.1339591374        1.5036734631        1.8428066237
 H          3.7181968537        0.9289707566       -2.0235338754
 H          6.1059003523        0.5861785163       -1.5636773467
 H          6.8210667081       -1.0983509365        0.0933827228
 H          5.1265352293       -2.4438429603        1.2804534278
 H          2.7411309565       -2.1173577804        0.8127031658
 H          2.5032441417       -1.5060061189       -3.1597146374
 H          1.8872221442       -0.9234493599       -5.4892743804
  56
  -91.3292887775000       9.616992020619473E-002 !
 O          0.7338159755        0.8098501358       -7.2490051437
 C          0.2842509257        0.0447600172       -6.4307066699
 O         -0.5981741673       -0.9124952460       -6.7686113707
 C          0.6246524737        0.0526924582       -4.9949404396
 C          1.5199821778        1.0152537398       -4.5276724452
 C          1.8576829427        1.0581577560       -3.1929567840
 C          1.3010426780        0.1493713354       -2.2895477522
 C          1.6566582326        0.2324322585       -0.8657874742
 C          0.7241950959        0.2227591044        0.1175582902
 C         -0.6888521253        0.2362077537       -0.0878064515
 C         -1.6242019797        0.1079466833        0.8841549193
 C         -3.0533316555        0.2369504550        0.5800516585
 C         -3.5150993259        1.1068056040       -0.4082851994
 C         -4.8650077729        1.2025554865       -0.6875194130
 C         -5.7800807423        0.4318986176        0.0107823439
 C         -5.3350081637       -0.4340855290        0.9962617806
 C         -3.9868471182       -0.5288207676        1.2815401794
 C         -1.2768178053       -0.1697266226        2.2848435135
 C         -1.8482783051        0.6013936720        3.2997259847
 C         -1.5270283767        0.3801419259        4.6218200122
 C         -0.6304055675       -0.6324290285        4.9596631067
 C         -0.2543920209       -0.9036129582        6.3610979683
 O          0.5176300842       -1.7625042892        6.7122760797
 O         -0.8589605618       -0.0907435989        7.2447565210
 C         -0.0708901553       -1.4195547621        3.9541216802
 C         -0.3901983708       -1.1904963628        2.6323556938
 C          3.0868181206        0.3228939182       -0.5539142452
 C          3.5505843011        1.0396901398        0.5498671116
 C          4.9015790229        1.1007527160        0.8330929389
 C          5.8161111361        0.4475458591        0.0232661515
 C          5.3693055431       -0.2650466261       -1.0775381419
 C          4.0198286460       -0.3246971298       -1.3663632379
 C          0.4185418854       -0.8208958147       -2.7672616143
 C          0.0819051826       -0.8714585174       -4.1046110141
 H         -0.7784143091       -0.8622594856       -7.7200107666
 H          1.9359326710        1.7193941964       -5.2322545089
 H          2.5471772476        1.8068527941       -2.8308821501
 H          1.0639601523        0.2427038939        1.1441728405
 H         -1.0273821787        0.3982770398       -1.1023436443
 H         -2.8133803548        1.7292867489       -0.9436903906
 H         -5.2062999154        1.8856844709       -1.4515762086
 H         -6.8344165344        0.5079882547       -0.2096084599
 H         -6.0425293489       -1.0384147598        1.5448114310
 H         -3.6456187038       -1.2126888748        2.0453803146
 H         -2.5401715815        1.3881668825        3.0360651465
 H         -1.9642364994        0.9850397633        5.4004296301
 H         -0.5731804028       -0.3168334383        8.1432471180
 H          0.6119275389       -2.2073287345        4.2346063117
 H          0.0276718076       -1.8172443574        1.8582445864
 H          2.8493418761        1.5721691615        1.1754038147
 H          5.2442464098        1.6647822165        1.6883904381
 H          6.8713424195        0.4962533611        0.2470530542
 H          6.0764125967       -0.7769806390       -1.7137219466
 H          3.6776432504       -0.8905493581       -2.2211566660
 H          0.0142780008       -1.5518226195       -2.0822549515
 H         -0.5989594344       -1.6247164679       -4.4691836407
  56
  -91.3292470384000       9.201471672895656E-002 !
 O          0.5595940815        0.2742816926       -7.2728914202
 C          0.1088783777        0.8446656853       -6.3094850059
 O         -0.7904946277        1.8369561631       -6.4321710813
 C          0.4686592997        0.5465617758       -4.9096586235
 C         -0.0984499269        1.2391105789       -3.8420606006
 C          0.2706003721        0.9338414483       -2.5484480830
 C          1.2116868181       -0.0649005599       -2.2893595456
 C          1.6157402037       -0.3840355827       -0.9149642471
 C          0.7151127946       -0.5067451047        0.0903659009
 C         -0.7043283086       -0.5346164226       -0.0736293882
 C         -1.6100339278       -0.4155351735        0.9277533008
 C         -3.0394234733       -0.6314821329        0.6780850941
 C         -3.4736507959       -1.5978995478       -0.2296835126
 C         -4.8221116181       -1.7940158014       -0.4583565555
 C         -5.7624766603       -1.0281359301        0.2109133555
 C         -5.3442127656       -0.0650841619        1.1146274033
 C         -3.9968937090        0.1301038449        1.3498309296
 C         -1.2207374635       -0.0449357406        2.2928861828
 C         -0.3032488413        0.9819280826        2.5263094450
 C          0.0617089121        1.3256668336        3.8113592090
 C         -0.4874949217        0.6461224086        4.8965697510
 C         -0.1248125513        0.9800563997        6.2873870323
 O         -0.5689916442        0.4305473548        7.2659451835
 O          0.7702845869        1.9790313501        6.3830933597
 C         -1.4124289662       -0.3743098497        4.6728104513
 C         -1.7775643074       -0.7110688983        3.3880992794
 C          3.0527444630       -0.5360385722       -0.6636220535
 C          3.5274814492       -1.4417473409        0.2856989209
 C          4.8833138350       -1.5756003507        0.5157575978
 C          5.7914546398       -0.8077637512       -0.1945902164
 C          5.3331527865        0.0946634343       -1.1403434827
 C          3.9784514885        0.2283911702       -1.3757799944
 C          1.7822262454       -0.7478240182       -3.3667804135
 C          1.4119013605       -0.4507684953       -4.6598352420
 H         -0.9825500016        1.9849424051       -7.3709099416
 H         -0.8220602198        2.0154571974       -4.0355411709
 H         -0.1522928827        1.4888903449       -1.7239818530
 H          1.0858860285       -0.6425118908        1.0980957325
 H         -1.0698428191       -0.7128277078       -1.0767343040
 H         -2.7482770799       -2.2153680425       -0.7389444711
 H         -5.1420564438       -2.5521828317       -1.1582492642
 H         -6.8158949341       -1.1834945591        0.0315855626
 H         -6.0724117808        0.5361379703        1.6390570639
 H         -3.6768409994        0.8885619685        2.0499208459
 H          0.1048404092        1.5274898605        1.6882037835
 H          0.7682247807        2.1222513285        3.9845917034
 H          0.9656327355        2.1493370961        7.3174507093
 H         -1.8307587404       -0.8880683389        5.5249816120
 H         -2.4899424120       -1.5048323890        3.2167816199
 H          2.8290143550       -2.0612584667        0.8289101142
 H          5.2345465032       -2.2862516474        1.2495182485
 H          6.8507703540       -0.9141762672       -0.0143249123
 H          6.0354822300        0.6978882255       -1.6970723839
 H          3.6275403957        0.9428827089       -2.1067582439
 H          2.5104723132       -1.5222433916       -3.1749884321
 H          1.8405091858       -0.9777225607       -5.4985584557
  56
  -91.3285694089000       4.492006097847994E-002 !
 O          0.5827675620        1.1211266765       -7.1828847420
 C          0.2042423608        0.2361668709       -6.4551039903
 O         -0.5944150413       -0.7510759133       -6.8986823452
 C          0.5508457384        0.1156011004       -5.0254745674
 C          1.3701009522        1.0886038274       -4.4538250925
 C          1.7149886208        1.0095100976       -3.1218628061
 C          1.2400398136       -0.0350838841       -2.3280797704
 C          1.6186143598       -0.1037530209       -0.9058259628
 C          0.7010558457       -0.1690126916        0.0880918473
 C         -0.7147427694       -0.1195233497       -0.0914128639
 C         -1.6258850472       -0.1193466030        0.9117328291
 C         -3.0626174484       -0.1992184453        0.6320749785
 C         -3.5484733380       -0.9130557198       -0.4646289476
 C         -4.9051886426       -0.9842109362       -0.7150491264
 C         -5.8046415605       -0.3446252441        0.1219017307
 C         -5.3361922227        0.3654676205        1.2152941238
 C         -3.9806344561        0.4354284714        1.4711987947
 C         -1.2403170811       -0.0192118307        2.3275771776
 C         -0.3849694366        0.9939730991        2.7645120999
 C         -0.0381993943        1.1003661786        4.0953639543
 C         -0.5443477445        0.1899422435        5.0209153621
 C         -0.2029348229        0.2677529001        6.4543957680
 O         -0.6323758509       -0.4714141585        7.3062412985
 O          0.6541009623        1.2622453411        6.7485307821
 C         -1.4074638450       -0.8188892933        4.5932998862
 C         -1.7550427327       -0.9179892932        3.2634835011
 C          3.0561109759       -0.0918850515       -0.6212674703
 C          3.9536542035       -0.6415093759       -1.5393912717
 C          5.3111500209       -0.6463976182       -1.2848704631
 C          5.8030485739       -0.0959539630       -0.1127787397
 C          4.9247558347        0.4595602081        0.8031337765
 C          3.5658813199        0.4625186481        0.5541399005
 C          0.4318919013       -1.0125894438       -2.9092205968
 C          0.0886143495       -0.9412233236       -4.2437538031
 H         -0.7839433030       -0.6143958709       -7.8396780055
 H          1.7251388867        1.8962592599       -5.0757386490
 H          2.3503956252        1.7623459461       -2.6785592148
 H          1.0550524969       -0.2699805682        1.1046752397
 H         -1.0758078713       -0.0891754392       -1.1097110728
 H         -2.8585610107       -1.4363844574       -1.1099505017
 H         -5.2641239158       -1.5472420033       -1.5644346030
 H         -6.8648704160       -0.4026502891       -0.0743722669
 H         -6.0319847330        0.8668341538        1.8720705669
 H         -3.6228363870        0.9994233780        2.3207481087
 H         -0.0153586947        1.7153400180        2.0500388815
 H          0.6181145565        1.8888364503        4.4294068150
 H          0.8350299043        1.2599803323        7.7011147299
 H         -1.7947368333       -1.5115572770        5.3250692317
 H         -2.4238796222       -1.6991515908        2.9327670213
 H          3.5770845040       -1.0807188323       -2.4520483099
 H          5.9896277603       -1.0803271722       -2.0047010255
 H          6.8646250970       -0.0957911794        0.0845093595
 H          5.3025662080        0.8983440705        1.7151331584
 H          2.8958131055        0.9199043649        1.2667824676
 H          0.0939852253       -1.8442135202       -2.3076294988
 H         -0.5328255882       -1.7012389144       -4.6912699181
  56
  -91.3284086427000       3.789285317924344E-002 !
 O          0.5796190943        1.6645796702       -7.0516700280
 C          0.2043229973        0.7122650393       -6.4124569544
 O         -0.5891413704       -0.2312360087       -6.9498145011
 C          0.5500398007        0.4574423405       -5.0004174551
 C          1.3542713160        1.3818425630       -4.3345571757
 C          1.6960138634        1.1795158001       -3.0149492127
 C          1.2333207143        0.0570600678       -2.3275123801
 C          1.6058137998       -0.1333146326       -0.9141152436
 C          0.6845261771       -0.2683113179        0.0684851198
 C         -0.7320917984       -0.2206620565       -0.1085622984
 C         -1.6371273347       -0.2452639793        0.8998884670
 C         -3.0740846263       -0.3486703133        0.6301486770
 C         -3.5531893679       -1.0736346538       -0.4620722304
 C         -4.9100835788       -1.1743711007       -0.7011250475
 C         -5.8161261564       -0.5533225571        0.1427768938
 C         -5.3541208120        0.1690916376        1.2307355380
 C         -3.9982259191        0.2684929732        1.4753428966
 C         -1.2402049135       -0.1443806896        2.3121167272
 C         -0.3813226996        0.8712505945        2.7372566792
 C         -0.0219958822        0.9832030268        4.0641852907
 C         -0.5179897116        0.0753498792        4.9978783810
 C         -0.1632906391        0.1600055466        6.4279450478
 O         -0.5725529430       -0.5851650014        7.2844387240
 O          0.6813678462        1.1674612485        6.7118546054
 C         -1.3830168103       -0.9368205004        4.5820178462
 C         -1.7441089965       -1.0408724451        3.2560273983
 C          3.0423221195       -0.1533646514       -0.6246296835
 C          3.5527615796        0.2932361682        0.5954674912
 C          4.9102899568        0.2533372630        0.8486291519
 C          5.7868148462       -0.2322551708       -0.1078158278
 C          5.2946156204       -0.6732373619       -1.3252317224
 C          3.9385031222       -0.6307734185       -1.5838063050
 C          0.4426538115       -0.8719903424       -3.0035635319
 C          0.1022988723       -0.6770407212       -4.3266111482
 H         -0.7787532666       -0.0053503139       -7.8734856800
 H          1.6984200289        2.2510533381       -4.8741755466
 H          2.3190493054        1.8948053663       -2.4980992714
 H          1.0349982070       -0.4353323356        1.0777398548
 H         -1.0980212367       -0.1765636625       -1.1245245889
 H         -2.8570669924       -1.5822855169       -1.1124944682
 H         -5.2641298471       -1.7455608703       -1.5470478366
 H         -6.8763517487       -0.6332887654       -0.0456103664
 H         -6.0549064798        0.6570292042        1.8922045352
 H         -3.6452850086        0.8408281399        2.3211761770
 H         -0.0185162756        1.5896260199        2.0162659563
 H          0.6365749819        1.7736786862        4.3889128759
 H          0.8726274114        1.1706095032        7.6623560363
 H         -1.7620814409       -1.6273569201        5.3199890513
 H         -2.4144355254       -1.8247470010        2.9349228456
 H          2.8849777290        0.6961648606        1.3424059110
 H          5.2883349712        0.6081099959        1.7964030862
 H          6.8471999871       -0.2638490860        0.0933469265
 H          5.9715023004       -1.0527562543       -2.0766238517
 H          3.5618115919       -0.9852032001       -2.5325792741
 H          0.1151155740       -1.7625744574       -2.4865936992
 H         -0.5070159277       -1.3987713704       -4.8479900623
  56
  -91.3284042943000       3.771889148685911E-002 !
 O          0.2016134017        4.2548400151       -2.4890951749
 C         -0.2956008076        3.1803011614       -2.7180791511
 O         -1.3524932104        3.0513226807       -3.5408650858
 C          0.1642370550        1.8987511650       -2.1490657676
 C          1.1463347583        1.9207949549       -1.1602344572
 C          1.5944864738        0.7435191387       -0.6020259248
 C          1.0643618298       -0.4808153295       -1.0110030685
 C          1.5513337553       -1.7303728482       -0.4086681144
 C          0.7309358508       -2.7293426803       -0.0248273136
 C         -0.7139293777       -2.7344172419       -0.0225263205
 C         -1.5405521299       -1.7464695747        0.3763414454
 C         -2.9967811201       -1.8836582239        0.2403456144
 C         -3.8479847832       -1.3720400602        1.2200224532
 C         -5.2183918385       -1.4975304767        1.0974415876
 C         -5.7651191399       -2.1276292382       -0.0085655696
 C         -4.9305320402       -2.6334723984       -0.9912723032
 C         -3.5590589715       -2.5149097030       -0.8684065345
 C         -1.0596283242       -0.5031251355        0.9965837196
 C         -1.5939776107        0.7249789300        0.6049228007
 C         -1.1528787823        1.8954783881        1.1828814172
 C         -0.1740706462        1.8623862663        2.1746611932
 C          0.2751865321        3.1363839480        2.7687262609
 O         -0.2308353903        4.2109818549        2.5608368115
 O          1.3319522479        2.9996565937        3.5902362438
 C          0.3455921721        0.6374650192        2.5885971769
 C         -0.0989724713       -0.5303274850        2.0071798062
 C          3.0081563006       -1.8600594798       -0.2701290794
 C          3.8589689293       -1.3395713398       -1.2452610684
 C          5.2297216609       -1.4576246893       -1.1190271145
 C          5.7767743897       -2.0885003458       -0.0136112998
 C          4.9423386818       -2.6031699915        0.9646362568
 C          3.5705595532       -2.4925027047        0.8377994180
 C          0.1015451003       -0.4967767655       -2.0197482682
 C         -0.3503773069        0.6779644912       -2.5811963375
 H         -1.6068612944        3.9248859452       -3.8762571527
 H          1.5411447906        2.8745536588       -0.8450844647
 H          2.3503590920        0.7620695739        0.1691926645
 H          1.1831480616       -3.6665372862        0.2808699668
 H         -1.1596221479       -3.6707239820       -0.3401521569
 H         -3.4261747500       -0.8852324952        2.0874809537
 H         -5.8638552675       -1.1009048300        1.8673448395
 H         -6.8365358256       -2.2202670482       -0.1061568303
 H         -5.3514217745       -3.1188366157       -1.8599385569
 H         -2.9162218403       -2.8933426299       -1.6497410156
 H         -2.3473432439        0.7522320673       -0.1684828523
 H         -1.5512082929        2.8521735977        0.8812515430
 H          1.5787730695        3.8679575478        3.9444693180
 H          1.0891009363        0.6119870897        3.3700015024
 H          0.2902498305       -1.4809998816        2.3401097060
 H          3.4366600874       -0.8511519872       -2.1116796808
 H          5.8752747928       -1.0544613139       -1.8854752643
 H          6.8484234832       -2.1753428342        0.0868113900
 H          5.3634389041       -3.0885185104        1.8331272640
 H          2.9271971437       -2.8779917072        1.6153108273
 H         -0.2853557160       -1.4438036844       -2.3655587708
 H         -1.0961393442        0.6613029985       -3.3606848979
