  68
  -113.098253224500       0.230067599441887      !
 C          2.7851488328        3.0307527094       -0.9303255772
 C          2.5775671701        1.8473505972       -1.6198257963
 C          1.3541244055        1.2091849823       -1.5478045235
 C          0.3189764001        1.7663719365       -0.8028649438
 C         -0.9704926935        1.0787457575       -0.7111000758
 N         -0.9714540345       -0.2309691410       -0.7409799376
 C         -2.0976857442       -0.9868587828       -0.6068509347
 C         -1.9163338098       -2.3843346566       -0.3714699408
 C         -2.8756994840       -3.3664286060       -0.6739029778
 C         -2.5802431963       -4.7032768636       -0.5542606040
 C         -1.3234544950       -5.1213910353       -0.1195718097
 C         -0.3742561801       -4.1764126671        0.2325457756
 C         -0.6610980997       -2.8263879198        0.1376860763
 N          0.2611355701       -1.8758763503        0.5975993455
 C          0.0016590797       -0.9573759095        1.6001032246
 C         -1.1525423782       -0.7703910091        2.3461666975
 C         -1.1607428002        0.2661089717        3.2624337710
 C         -0.0497190268        1.0851534706        3.4447706362
 C          1.1155714303        0.8815483248        2.7263655559
 C          1.1423477568       -0.1500956936        1.8022285373
 C          2.1383550415       -0.6378571450        0.8916455597
 C          3.4256162840       -0.2693721939        0.5487222409
 O          4.1604419858        0.7472782471        1.0613903865
 C          5.3374555684        0.7474936334        0.3738991088
 C          6.3897899416        1.6263346868        0.5462414511
 C          7.4987634736        1.4540114656       -0.2645749766
 C          7.5542891206        0.4368182342       -1.2145731001
 C          6.5024367416       -0.4408904160       -1.3864971672
 C          5.3772145180       -0.2865642856       -0.5848876643
 C          4.1136567264       -0.9591850393       -0.4728352172
 C          3.5157549040       -2.0210503903       -1.1563321199
 C          2.2303148397       -2.3991854083       -0.8374703537
 C          1.5557373771       -1.7125521070        0.1752596200
 C         -3.3156755094       -0.2800639501       -0.5862678947
 S         -4.9473838692       -0.8770963950       -0.4843883038
 C         -5.5739111200        0.7581219498       -0.3896446981
 C         -6.9003625908        1.1211179528       -0.2735392366
 C         -7.2104240076        2.4700803673       -0.2212535763
 C         -6.2049610377        3.4352366751       -0.2843470321
 C         -4.8814497820        3.0766606891       -0.4002288271
 C         -4.5443831441        1.7197273189       -0.4590969290
 C         -3.2598329851        1.1234154833       -0.5613424003
 N         -2.0828683693        1.7867167034       -0.6106840468
 C          0.5244190686        2.9655922797       -0.1289578767
 C          1.7577754431        3.5867501941       -0.1848624763
 H          3.7479900751        3.5189477221       -0.9756891786
 H          3.3745309733        1.4187831359       -2.2110177673
 H          1.1847305390        0.2797282599       -2.0708220489
 H         -3.8417188746       -3.0625259135       -1.0440867537
 H         -3.3270388706       -5.4393243988       -0.8118339803
 H         -1.0979231065       -6.1725515288       -0.0338449836
 H          0.5852914592       -4.4814558862        0.6254591079
 H         -2.0158276684       -1.4044070222        2.2120658056
 H         -2.0505671282        0.4439350375        3.8477680602
 H         -0.1008150759        1.8884291137        4.1642592066
 H          1.9832084328        1.5068191745        2.8682550951
 H          6.3400149889        2.4115937138        1.2832338732
 H          8.3387212668        2.1236488656       -0.1584471737
 H          8.4377131128        0.3368753137       -1.8270870536
 H          6.5458105629       -1.2276789908       -2.1238915771
 H          4.0577799350       -2.5277619738       -1.9394119472
 H          1.7376574758       -3.1980503310       -1.3696098124
 H         -7.6722823269        0.3685882139       -0.2225918009
 H         -8.2415315758        2.7752712850       -0.1298951548
 H         -6.4742042794        4.4803629177       -0.2437416821
 H         -4.0947067651        3.8126457629       -0.4526392292
 H         -0.2870251612        3.3883344154        0.4439621689
 H          1.9202934315        4.5098618678        0.3517781156
  68
  -113.098182398600       0.213454901110149      !
 C          2.7421244871        3.0867830618       -0.8687759510
 C          1.6933418746        3.6318829869       -0.1450723211
 C          0.4653294595        2.9989026136       -0.1173619124
 C          0.2854996600        1.7995509036       -0.7988371740
 C         -0.9972207971        1.0977883285       -0.7254436230
 N         -0.9845423752       -0.2116320150       -0.7672469193
 C         -2.1022481363       -0.9796287516       -0.6320847573
 C         -1.9097458243       -2.3741538289       -0.3893933425
 C         -2.8640467783       -3.3637216760       -0.6839032910
 C         -2.5647866971       -4.6979390426       -0.5476236204
 C         -1.3077370459       -5.1063430680       -0.1046368642
 C         -0.3624357617       -4.1537086732        0.2366835579
 C         -0.6533508069       -2.8055796253        0.1255028266
 N          0.2672499131       -1.8486999321        0.5747435698
 C          0.0083575453       -0.9154593599        1.5640873963
 C         -1.1491115332       -0.7095366984        2.2999979308
 C         -1.1576513736        0.3431113206        3.1976290549
 C         -0.0425293172        1.1576895313        3.3743291487
 C          1.1273747402        0.9325652857        2.6700459547
 C          1.1539359558       -0.1142909662        1.7631637462
 C          2.1527777750       -0.6224472171        0.8669883023
 C          3.4486317574       -0.2747147501        0.5344773676
 O          4.1932984106        0.7349538431        1.0470980446
 C          5.3804704593        0.7071371764        0.3780527119
 C          6.4475621775        1.5659363423        0.5600748299
 C          7.5664821822        1.3632301924       -0.2300215779
 C          7.6174502777        0.3364690204       -1.1699453639
 C          6.5507155415       -0.5209937181       -1.3520443056
 C          5.4155404026       -0.3361552330       -0.5711332102
 C          4.1388924590       -0.9852731821       -0.4712716520
 C          3.5338023144       -2.0451854777       -1.1517169075
 C          2.2408459534       -2.4041529252       -0.8417545506
 C          1.5653406732       -1.6999438241        0.1584609529
 C         -3.3276801917       -0.2854249275       -0.6031011961
 S         -4.9514684123       -0.9016318314       -0.4899618706
 C         -5.5948097306        0.7254951986       -0.3759270190
 C         -6.9239422724        1.0712343528       -0.2396562191
 C         -7.2494845557        2.4158222474       -0.1715229621
 C         -6.2562569181        3.3930981449       -0.2395415395
 C         -4.9299551461        3.0514562289       -0.3757020884
 C         -4.5771891425        1.6994086786       -0.4499434188
 C         -3.2868168849        1.1180822749       -0.5696934493
 N         -2.1169719027        1.7937920521       -0.6186922758
 C          1.3413986940        1.2543165396       -1.5231081492
 C          2.5606067809        1.9035995765       -1.5654653184
 H          3.7013772964        3.5836851702       -0.8903546168
 H          1.8365296658        4.5538004570        0.3996866146
 H         -0.3630508734        3.4110508252        0.4385280685
 H         -3.8299413389       -3.0678698040       -1.0607065939
 H         -3.3091270280       -5.4391563268       -0.7971460769
 H         -1.0793832341       -6.1554204311       -0.0028878752
 H          0.5970441188       -4.4508097859        0.6359381289
 H         -2.0152508214       -1.3407037462        2.1712026687
 H         -2.0512250685        0.5372602887        3.7719470045
 H         -0.0943672107        1.9757154393        4.0769593450
 H          1.9978496596        1.5547114821        2.8080695735
 H          6.4022331362        2.3592261086        1.2886959106
 H          8.4181645466        2.0164481176       -0.1150257011
 H          8.5097145223        0.2112751178       -1.7645745569
 H          6.5909780792       -1.3168098509       -2.0798249966
 H          4.0779840847       -2.5678285928       -1.9225915896
 H          1.7442884496       -3.2033195561       -1.3697909634
 H         -7.6855012682        0.3085802339       -0.1838627785
 H         -8.2827993609        2.7077445968       -0.0630021926
 H         -6.5372241773        4.4346068445       -0.1870110496
 H         -4.1536139115        3.7980891580       -0.4321387652
 H          1.1923152333        0.3253517535       -2.0530225801
 H          3.3743400965        1.4837105021       -2.1400258317
  68
  -113.097852691700       0.150585560890949      !
 C          2.5074625623        3.3411213411       -0.9510683395
 C          2.4211577001        2.0850043040       -1.5294956193
 C          1.2295012290        1.3873520975       -1.4953559249
 C          0.1093303396        1.9477841265       -0.8873015990
 C         -1.1382723629        1.1906392009       -0.8014401286
 N         -1.0683404252       -0.1176974906       -0.8480204511
 C         -2.1464111446       -0.9330933694       -0.6848798416
 C         -1.8908083081       -2.3186366325       -0.4464646688
 C         -2.8155965352       -3.3422475411       -0.7181109153
 C         -2.4707102642       -4.6649198428       -0.5787299581
 C         -1.1943403573       -5.0272199170       -0.1512682021
 C         -0.2755627344       -4.0408191511        0.1628349260
 C         -0.6096700573       -2.7022939806        0.0428885251
 N          0.3011019816       -1.7200894658        0.4537203353
 C          0.0584623880       -0.7640803856        1.4274558068
 C         -1.0911843505       -0.5244698207        2.1654033348
 C         -1.0789651510        0.5455294934        3.0420546359
 C          0.0502358689        1.3442212892        3.2007489259
 C          1.2160297019        1.0790312654        2.5046125726
 C          1.2217687800        0.0129444943        1.6198296024
 C          2.2196783017       -0.5444125115        0.7530435015
 C          3.5501594337       -0.2837265469        0.4818237598
 O          4.3410236704        0.6638467557        1.0428627636
 C          5.5734216855        0.5095859466        0.4811359678
 C          6.7075086299        1.2435963469        0.7729905740
 C          7.8706148594        0.9065260516        0.1020119040
 C          7.8983604422       -0.1266831575       -0.8321275262
 C          6.7642275914       -0.8566490548       -1.1267439572
 C          5.5846119201       -0.5391666528       -0.4627078291
 C          4.2476086655       -1.0618465888       -0.4671630901
 C          3.6073916438       -2.0853930523       -1.1717153426
 C          2.2826331641       -2.3620337741       -0.9178382812
 C          1.6077064732       -1.6128990455        0.0506820718
 C         -3.4005412762       -0.2953143720       -0.6060729441
 S         -4.9864949944       -0.9853329986       -0.4117113142
 C         -5.6953953887        0.6101928321       -0.2503076136
 C         -7.0279236710        0.8940240603       -0.0299325548
 C         -7.4089116317        2.2217414380        0.0711236667
 C         -6.4669268669        3.2439240470       -0.0491894089
 C         -5.1376410788        2.9641248586       -0.2693006405
 C         -4.7289015571        1.6298766280       -0.3763569340
 C         -3.4218226196        1.1085227310       -0.5691357026
 N         -2.2861897575        1.8348587546       -0.6650874352
 C          0.1955562804        3.2168975719       -0.3232813977
 C          1.3929315472        3.9057701274       -0.3511382140
 H          3.4429684507        3.8808715887       -0.9710013004
 H          3.2869847860        1.6481543421       -2.0067847579
 H          1.1490119125        0.4076506808       -1.9423819745
 H         -3.7964395882       -3.0816911312       -1.0819830283
 H         -3.1931452876       -5.4321451659       -0.8135066088
 H         -0.9292888494       -6.0670125553       -0.0431067251
 H          0.6992589717       -4.3034719808        0.5485953339
 H         -1.9689307692       -1.1425586388        2.0538906293
 H         -1.9675040930        0.7657303671        3.6147828357
 H          0.0142529813        2.1771519762        3.8864458176
 H          2.1008201877        1.6825865569        2.6339238069
 H          6.6798615856        2.0393260086        1.4997397022
 H          8.7768823054        1.4549430817        0.3096143425
 H          8.8269820748       -0.3595071837       -1.3312536439
 H          6.7877694351       -1.6585273143       -1.8485275572
 H          4.1539300200       -2.6509833313       -1.9099809034
 H          1.7653024423       -3.1391666796       -1.4584944314
 H         -7.7494149676        0.0971276980        0.0659118909
 H         -8.4453317988        2.4656568804        0.2471101019
 H         -6.7909504068        4.2707951993        0.0325217647
 H         -4.4001684226        3.7454622662       -0.3639835855
 H         -0.6825449484        3.6405072773        0.1399554131
 H          1.4600007788        4.8871044234        0.0954323273
  68
  -113.097727870300       0.131953036075446      !
 C          2.8404185234        2.9822201952       -0.8886980611
 C          2.5868945343        1.8358976401       -1.6240287478
 C          1.3665907240        1.1968344605       -1.5127142534
 C          0.3777946055        1.7212842286       -0.6861537057
 C         -0.9230325245        1.0516088555       -0.5907378688
 N         -0.9484993900       -0.2569052304       -0.5795593894
 C         -2.0938638516       -0.9919293402       -0.4834210985
 C         -1.9392843377       -2.3930539783       -0.2604713742
 C         -2.9198508054       -3.3574967797       -0.5549777097
 C         -2.6413211726       -4.7002646269       -0.4643922076
 C         -1.3806935332       -5.1449232151       -0.0700810392
 C         -0.4106397684       -4.2191922391        0.2784936167
 C         -0.6813409729       -2.8649251150        0.2162087145
 N          0.2619050245       -1.9358327248        0.6808034887
 C          0.0451887645       -1.0815622229        1.7467751269
 C         -1.0770347818       -0.9465561085        2.5501435356
 C         -1.0403536047        0.0169531195        3.5423670343
 C          0.0813792314        0.8186113671        3.7362943235
 C          1.2106463010        0.6746731614        2.9485217747
 C          1.1935507190       -0.2851115267        1.9499381391
 C          2.1455063725       -0.7057765124        0.9615216139
 C          3.4024534478       -0.2904366710        0.5642570619
 O          4.1424213080        0.7192284609        1.0828395521
 C          5.2597427190        0.8062529309        0.3070286855
 C          6.2818150871        1.7266420473        0.4394304257
 C          7.3183261310        1.6585451282       -0.4757880160
 C          7.3344854110        0.6998978358       -1.4861929203
 C          6.3152628535       -0.2226737829       -1.6147928372
 C          5.2614158996       -0.1714096475       -0.7098251469
 C          4.0351751797       -0.8993570571       -0.5412353515
 C          3.4188739636       -1.9368801646       -1.2451861944
 C          2.1619299445       -2.3600933386       -0.8730038256
 C          1.5359103601       -1.7418719537        0.2118344967
 C         -3.2973533278       -0.2606241110       -0.5418785027
 S         -4.9469370699       -0.8186292751       -0.5440895157
 C         -5.5415423154        0.8310895562       -0.5679773113
 C         -6.8636807155        1.2268194886       -0.5923741032
 C         -7.1428757291        2.5828310103       -0.6329835265
 C         -6.1125104367        3.5234926656       -0.6462857120
 C         -4.7935566779        3.1324635427       -0.6200203448
 C         -4.4877228304        1.7674903134       -0.5852944413
 C         -3.2136919481        1.1411442455       -0.5584792236
 N         -2.0237249723        1.7828627111       -0.5587342370
 C          0.6282663766        2.8828139629        0.0358028390
 C          1.8616332740        3.5005760914       -0.0560020938
 H          3.8011651732        3.4703528015       -0.9675164209
 H          3.3452728179        1.4380575377       -2.2833016720
 H          1.1634008159        0.2954438334       -2.0715867026
 H         -3.8912625668       -3.0356880395       -0.8938778742
 H         -3.4058743738       -5.4201936209       -0.7156400036
 H         -1.1673607928       -6.2004391641       -0.0116970115
 H          0.5545450637       -4.5439621380        0.6407654710
 H         -1.9476695287       -1.5678332955        2.4041899801
 H         -1.9015066920        0.1491658022        4.1802624990
 H          0.0674386420        1.5621531827        4.5189353415
 H          2.0842014825        1.2902261045        3.0967059312
 H          6.2604734774        2.4682180229        1.2216849945
 H          8.1304488919        2.3662577690       -0.4064523793
 H          8.1599409273        0.6827937681       -2.1817942218
 H          6.3277210575       -0.9631839738       -2.3998390025
 H          3.9206246079       -2.3847845921       -2.0885657939
 H          1.6507753369       -3.1370916346       -1.4200219737
 H         -7.6559807750        0.4941784333       -0.5805384985
 H         -8.1699728462        2.9135820361       -0.6547979941
 H         -6.3584975096        4.5745268704       -0.6819929693
 H         -3.9861995480        3.8475492736       -0.6346891606
 H         -0.1472058591        3.2821410417        0.6720291755
 H          2.0603419326        4.3930673393        0.5188968675
  68
  -113.097609677400       0.116439864465095      !
 C          2.7484561683        3.1278309781       -0.5252971677
 C          2.5441234576        2.0286513778       -1.3427896533
 C          1.3377557489        1.3543940583       -1.3098776757
 C          0.3135554001        1.8001954502       -0.4813242601
 C         -0.9762708440        1.0998797275       -0.4694684515
 N         -0.9775164815       -0.2086513314       -0.4462529057
 C         -2.1125825161       -0.9660907509       -0.4142309755
 C         -1.9451105487       -2.3633313129       -0.1842460732
 C         -2.9200545937       -3.3380357623       -0.4683183074
 C         -2.6412249286       -4.6783400852       -0.3514132753
 C         -1.3827730575       -5.1143696479        0.0577483214
 C         -0.4145386361       -4.1790904721        0.3848268077
 C         -0.6855962418       -2.8265036450        0.2945626656
 N          0.2759245592       -1.8967087092        0.7237697876
 C          0.1302276091       -1.0703133805        1.8227187199
 C         -0.9491409606       -0.9348775820        2.6818610185
 C         -0.8410483259       -0.0057428958        3.7015345838
 C          0.3076024339        0.7641376612        3.8646654514
 C          1.3931632183        0.6219000607        3.0174663886
 C          1.3057812970       -0.3058646070        1.9925785739
 C          2.1996394782       -0.7178720307        0.9477122258
 C          3.4491488272       -0.3266444035        0.5043538395
 O          4.2455094607        0.6408871880        1.0200660501
 C          5.3277426521        0.7197899588        0.1950315584
 C          6.3859670184        1.6009144861        0.3097031581
 C          7.3756227134        1.5319188824       -0.6561800878
 C          7.3111569735        0.6109664701       -1.6992813456
 C          6.2561060467       -0.2727523792       -1.8104043954
 C          5.2487700134       -0.2203676661       -0.8538232479
 C          4.0093759657       -0.9160400416       -0.6499749866
 C          3.3320320774       -1.9145595154       -1.3545890390
 C          2.0848324504       -2.3182869400       -0.9323659799
 C          1.5291553740       -1.7163207514        0.1990499932
 C         -3.3239752119       -0.2573877160       -0.5579926156
 S         -4.9607119573       -0.8437655466       -0.6699478875
 C         -5.5792555335        0.7931298725       -0.7739389491
 C         -6.9023108059        1.1632725086       -0.9092083047
 C         -7.2002233050        2.5124006275       -1.0030267528
 C         -6.1876869219        3.4714412000       -0.9591892948
 C         -4.8682905903        3.1058598026       -0.8212730625
 C         -4.5432448704        1.7479739778       -0.7306075688
 C         -3.2648085482        1.1447134094       -0.5947128530
 N         -2.0892765964        1.8092541364       -0.5203910700
 C          0.5138445234        2.9167037314        0.3221745431
 C          1.7340085523        3.5666728740        0.3099394237
 H          3.6983751288        3.6421695730       -0.5426762837
 H          3.3299359901        1.6943123102       -2.0054937767
 H          1.1746647144        0.4873843382       -1.9330668774
 H         -3.8915700175       -3.0273683416       -0.8160185365
 H         -3.4051311893       -5.4028068515       -0.5912407169
 H         -1.1685897364       -6.1679524536        0.1408199984
 H          0.5535350558       -4.4940944806        0.7483206449
 H         -1.8410470131       -1.5298278789        2.5556557150
 H         -1.6666657927        0.1251538068        4.3851629138
 H          0.3497196550        1.4818144741        4.6702600426
 H          2.2868421131        1.2135126699        3.1412547967
 H          6.4271491902        2.3138123653        1.1174148283
 H          8.2141632593        2.2094455103       -0.6014207431
 H          8.1019230106        0.5921533289       -2.4341421607
 H          6.2060342833       -0.9843291546       -2.6203028271
 H          3.7807023199       -2.3487537900       -2.2343502047
 H          1.5276082752       -3.0679691636       -1.4725403859
 H         -7.6801371822        0.4159315970       -0.9431162431
 H         -8.2278453906        2.8234102817       -1.1128230822
 H         -6.4478950893        4.5165987654       -1.0387539092
 H         -4.0746011249        3.8356096905       -0.7900548291
 H         -0.2887303534        3.2565816871        0.9591488457
 H          1.8930780327        4.4235394647        0.9480546779
  68
  -113.097351858300       8.863724247312364E-002 !
 C          2.4014623654        3.4673122781       -0.8541707044
 C          2.3592167506        2.2107232443       -1.4370096617
 C          1.1808316277        1.4904262439       -1.4448122988
 C          0.0302817215        2.0275636494       -0.8732360701
 C         -1.1998104727        1.2408960528       -0.8147062886
 N         -1.0979236649       -0.0648991789       -0.8848208565
 C         -2.1553556538       -0.9068423933       -0.7264551766
 C         -1.8723846261       -2.2864187347       -0.4823778808
 C         -2.7792000385       -3.3249521561       -0.7591920116
 C         -2.4235646881       -4.6418794957       -0.5969253977
 C         -1.1525918364       -4.9837543560       -0.1379238914
 C         -0.2495624617       -3.9826770745        0.1733104803
 C         -0.5927058886       -2.6483841202        0.0252660779
 N          0.3174429350       -1.6579240287        0.4173636152
 C          0.0868603587       -0.6734865485        1.3657225762
 C         -1.0614198151       -0.3921225202        2.0911347024
 C         -1.0354105480        0.7033983973        2.9350943815
 C          0.1073597907        1.4856558304        3.0783850678
 C          1.2732300333        1.1759317590        2.4017109024
 C          1.2645915276        0.0845837622        1.5480030269
 C          2.2595307016       -0.5166672862        0.7076902295
 C          3.6029824680       -0.3044507966        0.4565681001
 O          4.4157542300        0.6262054984        1.0157164659
 C          5.6554576428        0.4109533902        0.4911117202
 C          6.8106658858        1.1049673476        0.7979928073
 C          7.9766242634        0.7049479836        0.1678049800
 C          7.9874369960       -0.3504706735       -0.7415493247
 C          6.8325264973       -1.0399801425       -1.0520069371
 C          5.6494510393       -0.6587699749       -0.4289279160
 C          4.2937154722       -1.1290653816       -0.4573196827
 C          3.6341525592       -2.1460519793       -1.1537801777
 C          2.2972099318       -2.3752302489       -0.9189939343
 C          1.6295455611       -1.5863749277        0.0231075265
 C         -3.4249799326       -0.3014343076       -0.6356990010
 S         -4.9912071936       -1.0338085408       -0.4383571538
 C         -5.7364795600        0.5400619528       -0.2356974178
 C         -7.0716450495        0.7849431319        0.0130167141
 C         -7.4836338923        2.0999303514        0.1517289479
 C         -6.5691473860        3.1476261632        0.0396257214
 C         -5.2374386417        2.9065694300       -0.2101818549
 C         -4.7973476053        1.5858872611       -0.3553025053
 C         -3.4804590349        1.1008410936       -0.5751247110
 N         -2.3627385030        1.8548881595       -0.6653629310
 C          0.0725006735        3.2976438680       -0.3058937107
 C          1.2562684715        4.0098872462       -0.2928431906
 H          3.3267321672        4.0245292138       -0.8401141681
 H          3.2492812461        1.7911785850       -1.8840736610
 H          1.1340610284        0.5098783498       -1.8947508185
 H         -3.7552103002       -3.0803742782       -1.1462721532
 H         -3.1326196518       -5.4198005645       -0.8370247482
 H         -0.8791257639       -6.0186311954       -0.0060905570
 H          0.7214744014       -4.2293822370        0.5786173944
 H         -1.9500998269       -0.9965601786        1.9919218018
 H         -1.9239601787        0.9574990578        3.4935725086
 H          0.0818184870        2.3404569103        3.7370681585
 H          2.1690026501        1.7651663110        2.5209625669
 H          6.7968705345        1.9174768327        1.5063740555
 H          8.8989365029        1.2203188129        0.3890073288
 H          8.9190746446       -0.6330442360       -1.2083080441
 H          6.8421835765       -1.8590570554       -1.7545708616
 H          4.1765323235       -2.7455380187       -1.8678682499
 H          1.7660374102       -3.1483926370       -1.4517422115
 H         -7.7708551578       -0.0322186290        0.1033271995
 H         -8.5223558772        2.3135408459        0.3518107436
 H         -6.9168729273        4.1639874088        0.1514432713
 H         -4.5217440850        3.7085766441       -0.2988645193
 H         -0.8285337061        3.7021495112        0.1294901078
 H          1.2890762833        4.9916002745        0.1566587980
  68
  -113.097113291100       6.886179554334976E-002 !
 C          2.2516449335        3.6469945818       -1.1587623649
 C          2.2793785385        2.3132076897       -1.5348687964
 C          1.1342884316        1.5464166373       -1.4502212898
 C         -0.0511152222        2.1085532648       -0.9825428962
 C         -1.2527959744        1.2893756965       -0.8517326425
 N         -1.1249364707       -0.0155182201       -0.8849372079
 C         -2.1653007039       -0.8743170386       -0.7104376254
 C         -1.8608641725       -2.2542255048       -0.4957767829
 C         -2.7630078772       -3.2965686398       -0.7741117503
 C         -2.3916248909       -4.6129189118       -0.6471585062
 C         -1.1079492761       -4.9510571809       -0.2220085079
 C         -0.2088019495       -3.9472307382        0.0904854216
 C         -0.5670519560       -2.6131654233       -0.0241017580
 N          0.3419836375       -1.6236578889        0.3711403332
 C          0.1187397199       -0.6599039321        1.3428797375
 C         -1.0244520310       -0.3914856386        2.0810471874
 C         -0.9859104199        0.6750681673        2.9608737650
 C          0.1642719059        1.4418810802        3.1263939250
 C          1.3253407784        1.1430184785        2.4368954304
 C          1.3044296378        0.0795789333        1.5486329396
 C          2.2974426762       -0.5148671846        0.7013799797
 C          3.6510038808       -0.3311436542        0.4833413409
 O          4.4774991477        0.5547377415        1.0932081046
 C          5.7254169663        0.3079379086        0.6034274820
 C          6.8950362624        0.9440580229        0.9744946020
 C          8.0669701358        0.5156917038        0.3749072525
 C          8.0694089058       -0.5099745627       -0.5679808900
 C          6.9004349845       -1.1413868519       -0.9424908712
 C          5.7109015432       -0.7323486133       -0.3498249859
 C          4.3410566444       -1.1522555726       -0.4343907102
 C          3.6693593606       -2.1308175020       -1.1735469568
 C          2.3233419187       -2.3342306301       -0.9690296111
 C          1.6569369210       -1.5578878216       -0.0150202795
 C         -3.4443515577       -0.2914674418       -0.5958973413
 S         -4.9908067786       -1.0506610447       -0.3475120540
 C         -5.7620735756        0.5115523674       -0.1540482725
 C         -7.0960883292        0.7347921367        0.1202092075
 C         -7.5312323926        2.0437066758        0.2442601161
 C         -6.6406467038        3.1069718087        0.0927077222
 C         -5.3102708089        2.8874700470       -0.1825852940
 C         -4.8469853216        1.5732208427       -0.3134643772
 C         -3.5262506441        1.1095953864       -0.5565403890
 N         -2.4273573441        1.8823890977       -0.6956026692
 C         -0.0764589870        3.4514706579       -0.6163675247
 C          1.0716776724        4.2145390870       -0.7040535876
 H          3.1485649295        4.2452725289       -1.2247267857
 H          3.1970130946        1.8715446362       -1.8964110296
 H          1.1379769927        0.5100837849       -1.7525244309
 H         -3.7486876068       -3.0547220626       -1.1373377915
 H         -3.0981765831       -5.3926622562       -0.8886368173
 H         -0.8216126328       -5.9854747979       -0.1166076451
 H          0.7718344031       -4.1926777497        0.4726853528
 H         -1.9181285764       -0.9858366702        1.9684900986
 H         -1.8699003429        0.9173511416        3.5316606569
 H          0.1490838426        2.2734827934        3.8144579247
 H          2.2282238595        1.7168341721        2.5761347649
 H          6.8871503321        1.7328996683        1.7092248411
 H          9.0003600796        0.9845702656        0.6471487225
 H          9.0060487010       -0.8168471258       -1.0085457494
 H          6.9041705469       -1.9383746277       -1.6700489140
 H          4.2106659649       -2.7247919017       -1.8929872095
 H          1.7851981114       -3.0812416777       -1.5312607106
 H         -7.7766527158       -0.0941116272        0.2408433855
 H         -8.5696469929        2.2406034843        0.4624829957
 H         -7.0064192232        4.1182587891        0.1924342295
 H         -4.6133573200        3.7020142435       -0.3015684612
 H         -1.0045159232        3.8749721749       -0.2637959715
 H          1.0494138537        5.2562273755       -0.4189680049
