  97
       -159.24907625
 C         -9.3315813026       -3.5072349207       -3.6391722258
 C        -10.0838636801       -2.6820380768       -2.8169211099
 C         -9.4587074378       -1.8367940163       -1.9225706812
 C         -8.0656433188       -1.8088480708       -1.8408152590
 C         -7.4066315770       -0.9176764514       -0.8958603456
 N         -8.1807487419       -0.1234708672       -0.1294815431
 C         -7.5443054955        0.6855517647        0.7399928151
 C         -8.3532954396        1.5606202696        1.5780351194
 C         -7.7475832667        2.4154514855        2.5004814990
 C         -8.5208626505        3.2417332700        3.2898107511
 C         -9.9033021016        3.2279160708        3.1711065083
 C        -10.5107596527        2.3814856891        2.2559214244
 C         -9.7441005489        1.5518005398        1.4626282009
 N         -6.2430644325        0.7098247039        0.8612177664
 C         -5.4930915590       -0.0924981399        0.0658765530
 C         -4.0797312439       -0.0719821127        0.1651856330
 C         -3.2827312560       -0.9032877059       -0.6527468867
 C         -1.9170405897       -0.8746626192       -0.5628129902
 C         -1.2843850837       -0.0178772817        0.3488993667
 N          0.1124046470        0.0154807830        0.4312787941
 C          0.8937015042        1.1472939437        0.3998385692
 C          0.5230181806        2.4793798897        0.2601133137
 C          1.5210117250        3.4302152070        0.2334257895
 C          2.8789120933        3.0915273583        0.3371443503
 C          3.9042070104        4.1418046051        0.3018052633
 C          5.0316686013        4.0492390810        1.1311580322
 C          6.0239338054        5.0094458252        1.1347661705
 C          5.8752499447        6.0844179651        0.2758384064
 O          6.7339883134        7.1270004210        0.1207812624
 C          6.1828450285        7.9374450215       -0.8259034997
 C          6.7133196739        9.1217794510       -1.3043378763
 C          5.9879827028        9.7957740151       -2.2711506738
 C          4.7738443576        9.3048357774       -2.7441304156
 C          4.2453033225        8.1213811739       -2.2662932477
 C          4.9564557815        7.4273692473       -1.2968161122
 C          4.7524567888        6.2025347732       -0.5685011417
 C          3.7655965633        5.2307639895       -0.5531879345
 C          3.2451609751        1.7521617999        0.4567492200
 C          2.2606440585        0.7816859179        0.4810029872
 C          2.2889558362       -0.6545262112        0.5665369245
 C          3.3094302672       -1.5810694097        0.6774190381
 C          2.9928009039       -2.9355626773        0.7581478483
 C          4.0554008035       -3.9436289078        0.8597704454
 C          5.1803105226       -3.7009752555        1.6613068859
 C          6.2039891381       -4.6187584648        1.7898267058
 C          6.0906101043       -5.8044735605        1.0850826904
 O          6.9840865905       -6.8290796108        1.0672839356
 C          6.4607493327       -7.7772139556        0.2403648597
 C          7.0317114302       -8.9960103822       -0.0784908482
 C          6.3308803183       -9.8163925721       -0.9449903598
 C          5.1013448885       -9.4338139518       -1.4749427495
 C          4.5318445327       -8.2164524959       -1.1556780335
 C          5.2176787676       -7.3764871368       -0.2888468197
 C          4.9718084548       -6.0730329080        0.2703706689
 C          3.9515094146       -5.1425638277        0.1616611338
 C          1.6472084644       -3.3342245987        0.7494387164
 C          0.6142411443       -2.4270280170        0.6473434378
 C          0.9376352771       -1.0800712033        0.5337451019
 C         -2.0631569554        0.8075591322        1.1718545862
 C         -3.4290198820        0.7828013086        1.0825803282
 N         -6.1013415358       -0.9114479245       -0.8265996487
 C         -7.3139016865       -2.6421320312       -2.6709410072
 C         -7.9463540244       -3.4837540178       -3.5627872547
 H         -9.8232715402       -4.1679320370       -4.3380818737
 H        -11.1624444881       -2.7003900371       -2.8771946636
 H        -10.0292558649       -1.1883069471       -1.2760958002
 H         -6.6715515768        2.4151322158        2.5816536946
 H         -8.0486796396        3.9017358782        4.0032093864
 H        -10.5054291272        3.8754612779        3.7914921472
 H        -11.5872156518        2.3703420311        2.1643733050
 H        -10.2010478051        0.8867958803        0.7465259732
 H         -3.7778289955       -1.5497977505       -1.3600867607
 H         -1.3110133076       -1.4867350575       -1.2150866837
 H         -0.5136957069        2.7624203300        0.1659034680
 H          1.2497412001        4.4715167413        0.1488626124
 H          5.1126796848        3.2113421906        1.8069905983
 H          6.8827490002        4.9327137587        1.7821428290
 H          7.6534558004        9.4974062439       -0.9336396822
 H          6.3727492614       10.7233662647       -2.6671086461
 H          4.2388231919        9.8616704665       -3.4987231951
 H          3.3046092605        7.7410615012       -2.6340589750
 H          2.9175101336        5.3066381144       -1.2159667351
 H          4.2866590743        1.4721496732        0.4976468855
 H          4.3397236899       -1.2596913642        0.6783428658
 H          5.2341339373       -2.7760766456        2.2153597505
 H          7.0603432867       -4.4262419016        2.4159762403
 H          7.9838556818       -9.2868417061        0.3352242875
 H          6.7473379860      -10.7748625047       -1.2157095581
 H          4.5866478938      -10.1037423863       -2.1472287450
 H          3.5789865948       -7.9204067666       -1.5669672255
 H          3.1028344941       -5.3364652852       -0.4759296382
 H          1.4161831927       -4.3833574463        0.8554071905
 H         -0.4141916592       -2.7522978268        0.6715548979
 H         -1.5718664487        1.4395367117        1.8975111513
 H         -4.0372704218        1.4062103044        1.7188097903
 H         -6.2375578878       -2.6134925635       -2.5997299838
 H         -7.3612890450       -4.1291292318       -4.2021092880
