  78
       -126.72799867
 N         -6.8458838143       -3.0575192815       -0.2318663026
 C         -5.5446800492       -2.7340864659        0.0875209990
 C         -4.5098852734       -3.6566229870       -0.1136457072
 C         -3.2078115020       -3.2988959893        0.1329817747
 C         -2.8367505036       -2.0229383396        0.5819008958
 C         -3.8955352852       -1.1182647208        0.7975451196
 C         -5.2203253484       -1.4711092444        0.5571855293
 O         -3.7425790300        0.1558426437        1.2532665506
 C         -2.5315050366        0.6440566651        1.6119742603
 C         -2.4938889755        1.9392823472        2.1032321188
 C         -1.2782016171        2.4964633674        2.4961844352
 N         -1.2192366084        3.8130310653        2.8988880776
 C         -0.1104933403        1.7381280227        2.4146403761
 C         -0.1641938557        0.4487131674        1.9141254027
 C         -1.3689348015       -0.1297593534        1.4906934843
 B         -1.4078605238       -1.5203506885        0.8735111359
 C         -0.0001804818       -2.1112046536        0.6177540844
 C          0.3217983802       -3.2403878799       -0.1487306780
 C          1.6157749964       -3.6013455696       -0.4470859606
 C          2.6869000469       -2.8545445087        0.0569527624
 N          3.9779516314       -3.1063075080       -0.3857519398
 C          5.0424105497       -2.2150098092       -0.3558619561
 C          6.3226303650       -2.6711450004       -0.1300102919
 C          7.3927063863       -1.7767466988        0.0057917111
 C          7.1827155346       -0.4265260685       -0.0132374487
 C          5.8924626754        0.0872954997       -0.2704608584
 C          5.6028660303        1.4590816836       -0.2362156770
 C          4.3196921324        1.9395965281       -0.4272692283
 C          4.0005052319        3.3202541568       -0.2102227498
 C          2.7327598903        3.7658874446       -0.2954001575
 C          1.6488075594        2.8977044643       -0.6529987593
 C          0.3485282991        3.3538508899       -0.6542540939
 C         -0.7310315435        2.5249793121       -1.0088368621
 C         -2.0559992847        2.9604629489       -0.9820649570
 C         -3.1033660339        2.1244825889       -1.3505426178
 C         -4.4566183982        2.5488414746       -1.3167574057
 C         -5.4625990195        1.7106904789       -1.6855020936
 C         -5.1789726144        0.3951732168       -2.1126126990
 C         -3.8955592756       -0.0531080149       -2.1540083277
 C         -2.8174383641        0.7866576232       -1.7744520820
 C         -1.4995730059        0.3466406152       -1.7904605675
 C         -0.4477467004        1.1812521005       -1.4126175235
 C          0.8855013987        0.7294205198       -1.3931270547
 C          1.9313646269        1.5355843076       -1.0041341637
 C          3.2893581751        1.0457250955       -0.8447318083
 C          3.6025265584       -0.2918356541       -0.9803250393
 C          4.8321878416       -0.8158531242       -0.5574316821
 C          2.4078622178       -1.8182009983        0.9389260385
 C          1.0964407680       -1.4012557684        1.1453264909
 O          1.0016136583       -0.2413227569        1.8541302136
 H         -7.0676472798       -4.0391459917       -0.2716165053
 H         -7.5621841406       -2.4786285606        0.1754763497
 H         -4.7503627734       -4.6519089152       -0.4617757455
 H         -2.4365763592       -4.0398478581       -0.0083139022
 H         -5.9901604048       -0.7356524903        0.7368034671
 H         -3.4075024772        2.5095111426        2.1687062908
 H         -0.4043089123        4.0817744867        3.4257000585
 H         -2.0830532910        4.2227113064        3.2147390399
 H          0.8379574454        2.1534928315        2.7180597063
 H         -0.4808982123       -3.8197714996       -0.5773360091
 H          1.8134603738       -4.4385749462       -1.1021638331
 H          4.2040063492       -4.0665520047       -0.5998846598
 H          6.5004377157       -3.7320180380       -0.0183262000
 H          8.3826665089       -2.1722077831        0.1810444650
 H          7.9935167746        0.2626469978        0.1708709040
 H          6.3994865897        2.1522170695       -0.0017080876
 H          4.8070945473        3.9868678760        0.0621110554
 H          2.4953576711        4.8007364585       -0.0902703417
 H          0.1430077954        4.3756748576       -0.3660585958
 H         -2.2698747151        3.9714996519       -0.6637260266
 H         -4.6687735256        3.5571640740       -0.9890312846
 H         -6.4907302426        2.0428529616       -1.6547372141
 H         -5.9935626598       -0.2549342060       -2.3966346721
 H         -3.6732461074       -1.0640939598       -2.4645259194
 H         -1.2848362717       -0.6693154663       -2.0922328087
 H          1.0521174467       -0.2962991153       -1.6845300072
 H          2.8738134078       -0.9719145677       -1.3837168467
 H          3.2000398645       -1.2531611706        1.4026484771
