78
 energy: -126.715645060795 gnorm: 0.000030187200 xtb: 6.7.1 (edcfbbe)
N           -8.35954563666324        5.39742279860269       -1.70694551427165
C           -7.61890650584173        4.27691619644271       -1.40441854198572
C           -6.37674828240170        4.05552621812766       -2.01280042413051
C           -5.60868808510354        2.97867050550266       -1.64636345365252
C           -6.00311632403251        2.05302190660885       -0.66878484347144
C           -7.27112973206556        2.27647582345027       -0.09520877821372
C           -8.05567625524066        3.36994689807304       -0.45082332959390
O           -7.85293914777633        1.46481848634174        0.83293419640115
C           -7.26886249430122        0.31228642851092        1.24058110172784
C           -7.98400238854202       -0.47739512519542        2.12671545015384
C           -7.43818198530793       -1.67725188558500        2.58240191983737
N           -8.17285757519975       -2.50301441255471        3.40233486155986
C           -6.17099995228264       -2.06837145107859        2.14966150220037
C           -5.46539341997608       -1.26367349553844        1.27022335563848
C           -5.99170505350300       -0.05487807795046        0.79113333590281
B           -5.20967152994297        0.82412273022784       -0.17456168782248
C           -3.78207117792056        0.30046371769951       -0.46003536032351
C           -2.77540949790606        0.94494934265467       -1.19255854335304
C           -1.54328385360824        0.38484158510053       -1.42254169135093
C           -1.23794315168329       -0.88891000788523       -0.92345127981920
N            0.01550322968418       -1.41466194992240       -1.16236096826034
C            0.39999343132050       -2.74487464316892       -1.17663585282582
C           -0.49818646605763       -3.75308020612019       -1.45456372666394
C           -0.09149785472964       -5.09053820521330       -1.50738482656959
C            1.21580962400119       -5.43183418855988       -1.30817992090459
C            2.17536816674979       -4.43365407722668       -1.03597645480185
C            3.52620645799145       -4.74651354727096       -0.84248911209849
C            4.47266092958882       -3.78164145676226       -0.55789553565856
C            5.84869553720113       -4.14146736602261       -0.38144315072708
C            6.78312930815138       -3.21646016283634       -0.09878797724251
C            6.44505007048845       -1.83170278536266        0.04914177593233
C            7.42225523167539       -0.90603818406532        0.34242131680883
C            7.13286851587749        0.46070859157159        0.50136210850323
C            8.11431461983384        1.40802937227411        0.79437940312956
C            7.80210491485645        2.75349676959164        0.94852436501058
C            8.78962002540960        3.72875444586237        1.24485626576973
C            8.45675561674062        5.03957325663304        1.39077047853265
C            7.11490714599034        5.45709319205553        1.24981071849712
C            6.13801538238585        4.55396542425344        0.96608191947861
C            6.44114463009848        3.17696493469267        0.80521105733587
C            5.46221922804137        2.23390239570074        0.51383484995610
C            5.77231620529504        0.88280375419811        0.35594799768758
C            4.78727819203107       -0.07919960050851        0.05513164123571
C            5.07916474284894       -1.41528338746584       -0.10700626579169
C            4.07532020030258       -2.41728916361293       -0.43140657598949
C            2.74201869094870       -2.10599777624717       -0.63061867375301
C            1.77525001774370       -3.06973487244509       -0.94940663794803
C           -2.18524477848031       -1.53198246776065       -0.14092857254717
C           -3.42965812297073       -0.94924334575755        0.08722381627011
O           -4.23967127919011       -1.69807091146770        0.88674517089778
H           -8.15535828426053        5.85131049261805       -2.58195664144725
H           -9.33390055584618        5.37601898054061       -1.45476471854718
H           -6.03227935092035        4.74240045016907       -2.77317838734439
H           -4.66616171071496        2.82952487810057       -2.14844442182815
H           -9.01617750486202        3.49462107870293        0.02692659948791
H           -8.96293087228008       -0.16173946485752        2.45260512794555
H           -7.66163761309630       -3.20275975322384        3.91405095405517
H           -8.93837000959130       -2.08070734487741        3.90076184349725
H           -5.73500844827179       -2.99329404648408        2.49395579560087
H           -2.97119012768879        1.92971131702442       -1.58535278401128
H           -0.79899683478313        0.92071086030091       -1.99615849277588
H            0.70155753983488       -0.75151794998152       -1.49025560052473
H           -1.52680960419151       -3.50662980016990       -1.66588572726929
H           -0.82752067011577       -5.84960719825405       -1.72829393683578
H            1.53606683840937       -6.46174077210440       -1.36030316450199
H            3.83417556883910       -5.78030569807825       -0.92047718459668
H            6.11186967870350       -5.18448883827391       -0.48684602861225
H            7.81997782175070       -3.49435462744920        0.02838618959567
H            8.44635997011202       -1.23498902232898        0.45603503471246
H            9.14100287516789        1.08597059271506        0.90324253800161
H            9.81484578987733        3.40335401516385        1.35180181648908
H            9.21456899106026        5.77578616170880        1.61616222148201
H            6.87554929281476        6.50362750629638        1.37058208969571
H            5.10947332885885        4.86822121849998        0.85745495895781
H            4.43512229735875        2.55603692834954        0.40660270929794
H            3.77482430247390        0.28285787948270       -0.04137498522553
H            2.42449398617294       -1.08148942379785       -0.51771361708811
H           -1.97012625929188       -2.47852044031722        0.32858790310441
