  47
  -78.4743260332000       0.268335050910152      !
 C          7.6234026249        0.6168650121       -1.0494695533
 N          6.1919167946        0.5723563215       -0.9427398917
 C          5.2749574961        1.1509497391       -1.7775767973
 N          4.0390130499        0.9207663125       -1.4018813445
 C          4.1186009505        0.1623103392       -0.2892764780
 C          3.1561934113       -0.4143313222        0.6024123522
 C          1.7549342580       -0.3073020661        0.4457788391
 C          0.8842540078       -0.9382463776        1.3695034361
 C         -0.4732273007       -0.8380502621        1.2382928899
 C         -1.0292273705       -0.1075665694        0.1798223668
 N         -2.4343800662       -0.0053060551        0.0429474711
 C         -3.1961642393       -1.1277226616       -0.2352494074
 C         -2.6205133860       -2.3828880288       -0.4303451871
 C         -3.4108762139       -3.4849360642       -0.6978120870
 C         -4.7875968712       -3.3592102728       -0.7854049988
 C         -5.3762489315       -2.1162648716       -0.6211264906
 C         -4.5922889093       -1.0065649513       -0.3541981216
 O         -5.2298892307        0.1956986558       -0.2280061806
 C         -4.4642872200        1.2968857110        0.0355736442
 C         -5.1201456033        2.5092507320        0.1673904913
 C         -4.4041032399        3.6577586101        0.4615172416
 C         -3.0320837134        3.5861170157        0.6385603901
 C         -2.3688046423        2.3804891301        0.5071706741
 C         -3.0683086729        1.2175733831        0.1863826923
 C         -0.1844526595        0.5181538850       -0.7458841507
 C          1.1754455620        0.4184074763       -0.6211830756
 N          3.6698616971       -1.1222447709        1.6424524495
 C          4.9436319825       -1.2809700232        1.8256842157
 N          5.9164825510       -0.7784919073        1.0590689247
 C          5.4752021340       -0.0724523075        0.0132260485
 H          7.9720364584        1.6513608367       -1.0480595293
 H          8.0431061562        0.0912891487       -0.1937739602
 H          7.9544408147        0.1317857321       -1.9702943963
 H          5.5541745471        1.7288643810       -2.6344006735
 H          1.3285127824       -1.4862860355        2.1852564259
 H         -1.1324287952       -1.3061291772        1.9559617191
 H         -1.5485636385       -2.4812812842       -0.3756505979
 H         -2.9438550104       -4.4467168862       -0.8418909342
 H         -5.4034206670       -4.2201385524       -0.9913941436
 H         -6.4430810739       -1.9820933066       -0.7013522945
 H         -6.1906438504        2.5284442399        0.0409448519
 H         -4.9199912937        4.5993284793        0.5615854073
 H         -2.4699883290        4.4733577480        0.8850063336
 H         -1.3029694806        2.3254730072        0.6574486462
 H         -0.6225768112        1.0660341548       -1.5683554625
 H          1.8304583948        0.8878557600       -1.3379645101
 H          5.2612239425       -1.8619570606        2.6796162096
  47
  -78.4741652738000       0.226358861312306      !
 C          7.5995075175       -0.6793574557        1.1514956579
 N          6.1709340766       -0.6584946687        1.0085276368
 C          5.2370200328       -1.1563323503        1.8754965502
 N          4.0087347882       -0.9417874919        1.4672124838
 C          4.1108434713       -0.2709879879        0.3015382034
 C          3.1660785387        0.2545369699       -0.6394434312
 C          1.7618990986        0.1909141993       -0.4838603975
 C          0.9109168296        0.7936761806       -1.4439841278
 C         -0.4489311694        0.7457769920       -1.3072813239
 C         -1.0263971177        0.0932436716       -0.2103509322
 N         -2.4341525412        0.0590713560       -0.0607959065
 C         -3.1262917683       -1.1358824936       -0.1567524555
 C         -2.4849060043       -2.3406197799       -0.4423556800
 C         -3.2062869155       -3.5163738180       -0.5324013011
 C         -4.5792448856       -3.5157897726       -0.3477118723
 C         -5.2373684228       -2.3259081729       -0.0840151676
 C         -4.5231213105       -1.1432347087        0.0073733601
 O         -5.2321703328        0.0007302591        0.2465556443
 C         -4.5359376683        1.1737510613        0.3342796563
 C         -5.2613619989        2.3263377136        0.5844314117
 C         -4.6113088821        3.5433928036        0.7058601151
 C         -3.2321575395        3.6011314772        0.5899262659
 C         -2.4998059864        2.4556524699        0.3404106272
 C         -3.1376824112        1.2245095887        0.1923819355
 C         -0.2017975834       -0.5106932647        0.7469567406
 C          1.1606472767       -0.4589664419        0.6192613563
 N          3.7006663627        0.8742092829       -1.7241800091
 C          4.9783829069        0.9960249654       -1.9075054941
 N          5.9357126823        0.5384890643       -1.0943389171
 C          5.4736318972       -0.0762957256       -0.0011073732
 H          7.9379582027        0.1481571997        1.7816050631
 H          7.9119478599       -1.6218693003        1.6026728520
 H          8.0484212471       -0.5764045858        0.1640743716
 H          5.4986489865       -1.6727109731        2.7760989994
 H          1.3716670468        1.2815418023       -2.2882970392
 H         -1.0939121562        1.1968695730       -2.0483257944
 H         -1.4182256230       -2.3409941162       -0.5975357563
 H         -2.6892576964       -4.4375358719       -0.7517343736
 H         -5.1406388076       -4.4339257823       -0.4163321720
 H         -6.3066026259       -2.2899477544        0.0499445393
 H         -6.3318484954        2.2459640222        0.6845194632
 H         -5.1816029489        4.4380674141        0.8985500419
 H         -2.7175953174        4.5432768434        0.6975749693
 H         -1.4256973191        2.5011311062        0.2641532447
 H         -0.6567444753       -1.0012293670        1.5963196734
 H          1.8010607979       -0.9072100144        1.3622666497
 H          5.3132024886        1.5015336727       -2.8017169131
  47
  -78.4737383162000       0.144072593198265      !
 C          7.5928369555        1.0222082872        0.8363879818
 N          6.1682296288        0.8422130697        0.8174950809
 C          5.2398306113        1.4538370460        1.6152266701
 N          4.0129676078        1.0849356112        1.3317632054
 C          4.1111525526        0.1979424538        0.3198161100
 C          3.1632065382       -0.5355176332       -0.4657097237
 C          1.7611039571       -0.4652054080       -0.2973701096
 C          0.8988201851       -1.1661925444       -1.1777635132
 C         -0.4596452114       -1.0495061630       -1.0737397742
 C         -1.0268428167       -0.2471587963       -0.0738702369
 N         -2.4286786622       -0.0781050142        0.0004909280
 C         -3.2649598867       -1.1588959090        0.2257905491
 C         -2.7712809977       -2.4423656010        0.4602277089
 C         -3.6350385954       -3.5027178429        0.6611521972
 C         -5.0063915587       -3.3072254041        0.6436909475
 C         -5.5160716412       -2.0344214875        0.4476257783
 C         -4.6581699853       -0.9660595556        0.2482920125
 O         -5.2230466793        0.2683215100        0.0920151210
 C         -4.3864381111        1.3278203892       -0.1200111430
 C         -4.9712784344        2.5718992217       -0.2881567253
 C         -4.1827741783        3.6822754895       -0.5393202477
 C         -2.8090406130        3.5385578198       -0.6431419594
 C         -2.2170570931        2.3007635690       -0.4762065730
 C         -2.9900642955        1.1758981720       -0.1879690372
 C         -0.1894598358        0.4153892700        0.8343832640
 C          1.1710645302        0.3104723848        0.7284121451
 N          3.6914028924       -1.3292193346       -1.4343636373
 C          4.9673701641       -1.4290120611       -1.6433192716
 N          5.9265543871       -0.7721270784       -0.9836478204
 C          5.4699231890        0.0274015741       -0.0145252093
 H          7.9924606862        0.7973038306        1.8269235859
 H          8.0295365879        0.3442263035        0.1054833749
 H          7.8507955297        2.0507092946        0.5744819917
 H          5.5037868529        2.1565959150        2.3785231210
 H          1.3502454491       -1.7668597969       -1.9513359081
 H         -1.1100967808       -1.5525917091       -1.7754836289
 H         -1.7049017382       -2.5961224026        0.4886354884
 H         -3.2302171998       -4.4871855773        0.8368845359
 H         -5.6793096835       -4.1355654488        0.7975681842
 H         -6.5772901102       -1.8441502037        0.4523039838
 H         -6.0449819944        2.6450874709       -0.2233565401
 H         -4.6429559920        4.6491885626       -0.6658395936
 H         -2.1884504989        4.3940340556       -0.8597977388
 H         -1.1492059007        2.1940897634       -0.5724569187
 H         -0.6349880072        1.0025496601        1.6251619713
 H          1.8187852742        0.8210609995        1.4231053948
 H          5.2981997941       -2.0911654365       -2.4306753286
  47
  -78.4733042445000       9.101140771901919E-002 !
 C          7.5577399636        1.1770188718        0.7467336326
 N          6.1439667509        0.9270472261        0.7771443034
 C          5.2156778379        1.4891089428        1.6106297326
 N          3.9981641981        1.0668638476        1.3638170656
 C          4.1030333955        0.1930098112        0.3411494681
 C          3.1628938179       -0.5694985686       -0.4259886594
 C          1.7621845537       -0.5323167977       -0.2368987847
 C          0.9020573806       -1.2400876012       -1.1140944336
 C         -0.4567176340       -1.1232881875       -1.0132159771
 C         -1.0254604729       -0.3165902824       -0.0177472994
 N         -2.4242238405       -0.1145848963        0.0297297748
 C         -3.2932460813       -1.1726143460        0.2349913094
 C         -2.8379397645       -2.4657396299        0.4927862564
 C         -3.7330811673       -3.5031585390        0.6751808943
 C         -5.0981699957       -3.2745028115        0.6145506354
 C         -5.5707324235       -1.9916256416        0.3925089913
 C         -4.6814426708       -0.9459004400        0.2120991128
 O         -5.2106924138        0.3003254332        0.0276650916
 C         -4.3420034410        1.3379806899       -0.1623767540
 C         -4.8907960175        2.5945426245       -0.3578721086
 C         -4.0679260254        3.6841724639       -0.5887596756
 C         -2.6952933157        3.5070836392       -0.6446150284
 C         -2.1392875749        2.2565655173       -0.4510400252
 C         -2.9482120958        1.1521076355       -0.1829869097
 C         -0.1904653558        0.3341566908        0.9011937579
 C          1.1701797271        0.2287734297        0.7987151185
 N          3.6951638786       -1.3373966844       -1.4129392172
 C          4.9673415354       -1.3812710879       -1.6608045156
 N          5.9168258279       -0.6855641886       -1.0275070263
 C          5.4564063231        0.0866899810       -0.0382505473
 H          7.7529891069        2.2280519574        0.5229872626
 H          8.0109496717        0.9284246290        1.7084160337
 H          7.9945541054        0.5549875782       -0.0323389387
 H          5.4724955680        2.1973457114        2.3712722456
 H          1.3551587239       -1.8394769449       -1.8876723155
 H         -1.1055746026       -1.6253866273       -1.7170780379
 H         -1.7766345390       -2.6441290775        0.5538463057
 H         -3.3583186129       -4.4960572146        0.8691638216
 H         -5.7955460034       -4.0854629889        0.7515505847
 H         -6.6266995075       -1.7761713345        0.3612937179
 H         -5.9640195694        2.6937359260       -0.3300569050
 H         -4.5000950721        4.6609914184       -0.7362783395
 H         -2.0469133822        4.3459875133       -0.8443023055
 H         -1.0717932880        2.1244995407       -0.5124738276
 H         -0.6382311528        0.9172289772        1.6937533851
 H          1.8162848431        0.7347079743        1.4982355601
 H          5.3022775340       -2.0257263636       -2.4609412507
  47
  -78.4732456469000       8.553940783984532E-002 !
 C          7.5105358082        1.2454479237        0.8237798999
 N          6.1043297449        0.9545851378        0.8361316647
 C          5.1585546296        1.4570777368        1.6878464152
 N          3.9541034786        1.0119263034        1.4189150898
 C          4.0857214195        0.1839793585        0.3619577024
 C          3.1680568336       -0.5705662812       -0.4398963891
 C          1.7654988787       -0.5633941792       -0.2602238584
 C          0.9199245379       -1.2574631610       -1.1620001119
 C         -0.4415301933       -1.1525387589       -1.0731946646
 C         -1.0250233002       -0.3719936277       -0.0666757967
 N         -2.4226989491       -0.1566697774       -0.0284696054
 C         -3.3109415138       -1.1927349035        0.2014284623
 C         -2.8829973403       -2.5036316231        0.4094253530
 C         -3.7992193490       -3.5161804164        0.6255380617
 C         -5.1572443233       -3.2437534367        0.6494315613
 C         -5.6008383095       -1.9435399461        0.4730318260
 C         -4.6906471062       -0.9230406053        0.2561712144
 O         -5.1906318838        0.3413556252        0.1173507758
 C         -4.3038110902        1.3523521030       -0.1259278186
 C         -4.8223349322        2.6254457793       -0.2945343017
 C         -3.9789346194        3.6878403402       -0.5739611857
 C         -2.6175611294        3.4676809380       -0.7041887809
 C         -2.0914509163        2.2010442875       -0.5351577939
 C         -2.9197628986        1.1236254717       -0.2200095008
 C         -0.2043092558        0.2613831289        0.8772066794
 C          1.1573645473        0.1649172128        0.7894363795
 N          3.7238375313       -1.2876283143       -1.4514037272
 C          4.9976167787       -1.2875440167       -1.6955198344
 N          5.9258648019       -0.5907185486       -1.0326959598
 C          5.4425585427        0.1293722866       -0.0153809157
 H          7.9635101404        0.6939637414        0.0020728884
 H          7.6747256600        2.3150524619        0.6770167183
 H          7.9733082861        0.9411647761        1.7647317922
 H          5.3936347032        2.1407087214        2.4774165960
 H          1.3851660831       -1.8349599892       -1.9450626890
 H         -1.0788360415       -1.6421201621       -1.7962484831
 H         -1.8260830724       -2.7151731477        0.4068228130
 H         -3.4462555826       -4.5239357689        0.7797494654
 H         -5.8712338876       -4.0346697861        0.8151821952
 H         -6.6496071510       -1.6953595835        0.5051667933
 H         -5.8883855796        2.7597398697       -0.2065509784
 H         -4.3871418797        4.6778329078       -0.7001839243
 H         -1.9552219269        4.2851664582       -0.9427949584
 H         -1.0331618198        2.0344983423       -0.6497266369
 H         -0.6656477640        0.8271689629        1.6744898786
 H          1.7920830373        0.6568853595        1.5090095437
 H          5.3523401749       -1.8904093435       -2.5191661627
  47
  -78.4730251565000       6.773854556335399E-002 !
 C          7.6178032854        0.6352816291       -1.0455902834
 N          6.1870164522        0.5781376982       -0.9468179343
 C          5.2668971775        1.1711985024       -1.7664635657
 N          4.0325447866        0.9384389375       -1.3879473745
 C          4.1163172183        0.1667493254       -0.2848722820
 C          3.1569171564       -0.4193210446        0.6041548553
 C          1.7551870989       -0.3094805495        0.4527442085
 C          0.8856415264       -0.9417096070        1.3765406398
 C         -0.4721783017       -0.8407137990        1.2473544101
 C         -1.0292740164       -0.1094672542        0.1901533669
 N         -2.4345178310       -0.0072508365        0.0532449217
 C         -3.1961749041       -1.1290720535       -0.2278996097
 C         -2.6208905413       -2.3846228258       -0.4214747032
 C         -3.4112000203       -3.4859318251       -0.6922096820
 C         -4.7875131642       -3.3590862914       -0.7842480180
 C         -5.3757386870       -2.1156820944       -0.6214982800
 C         -4.5917722788       -1.0067185670       -0.3517900682
 O         -5.2288725239        0.1962587007       -0.2284185253
 C         -4.4622865181        1.2980957661        0.0301378735
 C         -5.1163752184        2.5126960363        0.1492033430
 C         -4.3995201289        3.6621465180        0.4379437411
 C         -3.0286988869        3.5890365734        0.6232323516
 C         -2.3671972236        2.3811599449        0.5043786103
 C         -3.0671363502        1.2173394986        0.1876718637
 C         -0.1855195393        0.5176650486       -0.7354907077
 C          1.1744673740        0.4190334043       -0.6116241639
 N          3.6740800408       -1.1404482409        1.6332318421
 C          4.9482758872       -1.3058074444        1.8070458694
 N          5.9180400437       -0.7963005775        1.0411188925
 C          5.4737681356       -0.0740024641        0.0080377811
 H          8.0336907702       -0.3599160468       -0.8854911296
 H          7.8960151578        0.9952663209       -2.0350130866
 H          8.0271079995        1.3076687124       -0.2875231580
 H          5.5419307842        1.7571764700       -2.6192522533
 H          1.3306073916       -1.4912928450        2.1908663479
 H         -1.1304385231       -1.3090432461        1.9657419811
 H         -1.5492545901       -2.4838569581       -0.3638321161
 H         -2.9443840153       -4.4478816283       -0.8360289619
 H         -5.4032869736       -4.2194468977       -0.9925168352
 H         -6.4421759700       -1.9806985752       -0.7045965386
 H         -6.1861303286        2.5330346360        0.0168911124
 H         -4.9138165554        4.6057479015        0.5267063413
 H         -2.4660086280        4.4771094162        0.8653905369
 H         -1.3022639550        2.3253634318        0.6605882696
 H         -0.6245445703        1.0657943841       -1.5573175148
 H          1.8284385686        0.8905116987       -1.3279075110
 H          5.2688368993       -1.8991882784        2.6512310393
  47
  -78.4730114198000       6.676101291844051E-002 !
 C          7.5969520181        0.0449607981        1.2950131273
 N          6.1710426099       -0.0572231283        1.1578777169
 C          5.2461856630       -0.1942134349        2.1575962084
 N          4.0173025128       -0.2336749390        1.6989763201
 C          4.1094431061       -0.1162094678        0.3595510947
 C          3.1576274568       -0.0688810892       -0.7113767792
 C          1.7537848916       -0.0981640939       -0.5336385928
 C          0.8937545162        0.0191527822       -1.6526547209
 C         -0.4658446230        0.0367758239       -1.4954357207
 C         -1.0269685103       -0.0720026100       -0.2193939487
 N         -2.4380084237       -0.0118031054       -0.0535732250
 C         -3.1893525444       -1.1674596671        0.0289217297
 C         -2.6026078489       -2.4296136613       -0.0362415583
 C         -3.3821030234       -3.5683053763        0.0460490582
 C         -4.7563654675       -3.4698933248        0.1929672485
 C         -5.3575019907       -2.2232227804        0.2552983474
 C         -4.5855470616       -1.0770014649        0.1734972557
 O         -5.2316539314        0.1271222201        0.2324468714
 C         -4.4716076123        1.2617980569        0.1582735593
 C         -5.1275009956        2.4790023067        0.2277367057
 C         -4.4059974031        3.6601467656        0.1653402034
 C         -3.0270545168        3.6216598070        0.0365827907
 C         -2.3633533557        2.4112605162       -0.0364291979
 C         -3.0730087923        1.2132462431        0.0184727273
 C         -0.1964093274       -0.2117281402        0.8961090045
 C          1.1659130664       -0.2232419031        0.7450929575
 N          3.6832538533        0.0513691737       -1.9572612462
 C          4.9571622564        0.1366305185       -2.1828592294
 N          5.9178410119        0.1184505513       -1.2542562767
 C          5.4670333784       -0.0031218773       -0.0012930300
 H          8.0333520883        0.0673028602        0.2982412920
 H          7.8653536793        0.9605775160        1.8268821733
 H          7.9875956838       -0.8126683981        1.8454243386
 H          5.5143041344       -0.2640598812        3.1914518678
 H          1.3455931440        0.1009081162       -2.6286499099
 H         -1.1200348220        0.1355609643       -2.3502934474
 H         -1.5328117476       -2.4992788936       -0.1529532934
 H         -2.9106796836       -4.5373127218       -0.0055476640
 H         -5.3631925699       -4.3589825792        0.2577429769
 H         -6.4247156559       -2.1166054255        0.3657252778
 H         -6.2006230867        2.4790592941        0.3319293129
 H         -4.9226923443        4.6051049976        0.2198319530
 H         -2.4605503100        4.5387422996       -0.0073116039
 H         -1.2901908409        2.3762243766       -0.1347569448
 H         -0.6438830202       -0.3000163257        1.8762015556
 H          1.8140113602       -0.3188143689        1.6020016517
 H          5.2839617243        0.2308493533       -3.2082445894
  47
  -78.4727416769000       5.018312053861807E-002 !
 C          7.6178366186        0.0151339420        1.2530078511
 N          6.1869816964        0.0406456521        1.1337038152
 C          5.2694249048        0.2212897210        2.1332614363
 N          4.0351100633        0.2001929945        1.6881662252
 C          4.1162359573        0.0010447003        0.3575217715
 C          3.1555728656       -0.1298650763       -0.6984284961
 C          1.7529857772       -0.0765498026       -0.5162271826
 C          0.8873094007       -0.2638111330       -1.6214782549
 C         -0.4717596747       -0.2253875288       -1.4646445602
 C         -1.0268115177        0.0083018169       -0.2025878302
 N         -2.4390878393        0.0420208569       -0.0405891712
 C         -3.1522011921       -1.1330748439        0.0985155116
 C         -2.5217545643       -2.3757101231        0.1150332745
 C         -3.2625996577       -3.5342252923        0.2567418571
 C         -4.6410035640       -3.4756394350        0.3855250147
 C         -5.2844268036       -2.2486622280        0.3768809926
 C         -4.5511328251       -1.0828006856        0.2364388062
 O         -5.2366030543        0.1007498194        0.2393076967
 C         -4.5153458254        1.2545531623        0.1000987891
 C         -5.2135368650        2.4499924076        0.0946311105
 C         -4.5344817511        3.6488842916       -0.0509000065
 C         -3.1560914696        3.6499122681       -0.1929789915
 C         -2.4500697525        2.4614300361       -0.1892496319
 C         -3.1157687184        1.2462570705       -0.0406558353
 C         -0.1901472784        0.2014138405        0.9004928238
 C          1.1717016829        0.1559376915        0.7505370157
 N          3.6714759913       -0.3337086541       -1.9376372029
 C          4.9443989594       -0.4103491018       -2.1712880585
 N          5.9137329443       -0.3018362458       -1.2578620117
 C          5.4725289347       -0.1020865177       -0.0115425766
 H          8.0035410022        1.0131745349        1.4764516764
 H          7.9172053559       -0.6683002640        2.0499544150
 H          8.0325324858       -0.3244600018        0.3050704862
 H          5.5461474803        0.3600737277        3.1579438627
 H          1.3348943636       -0.4369636712       -2.5875000119
 H         -1.1303438502       -0.3703169935       -2.3095728654
 H         -1.4483753798       -2.4155591772        0.0183915371
 H         -2.7569457225       -4.4872131736        0.2677403322
 H         -5.2175570709       -4.3802577419        0.4954695294
 H         -6.3551648692       -2.1728138365        0.4788992332
 H         -6.2859249089        2.4190288649        0.2033038398
 H         -5.0842578735        4.5766092005       -0.0556465731
 H         -2.6238972221        4.5809871627       -0.3103594210
 H         -1.3778459286        2.4559573126       -0.3036786124
 H         -0.6330428171        0.3799196489        1.8704571726
 H          1.8241491905        0.2948023599        1.5983074970
 H          5.2629566924       -0.5732602395       -3.1906788081
