94
 energy: -153.793022177630 gnorm: 0.000136561989 xtb: 6.7.1 (edcfbbe)
N            0.00022115353432        3.40293496528707       -2.03202527299158
C            0.00026964455393        2.42977900635728       -1.40660045882538
C            0.00007728546559        1.27628097229876       -0.63672447812412
C           -1.23019933328021        0.61795930966397       -0.31098459228257
N           -2.43903815196063        1.22434255415106       -0.67406079476024
C           -2.90242536427571        2.44042268800509       -0.21432505080025
C           -2.25209514583284        3.40532223099692        0.54166527057050
C           -2.96769624903439        4.52877842411830        0.90815354275795
C           -4.30239005222449        4.68772903201260        0.54632440212019
C           -4.96175007704990        3.72021607624936       -0.19081221532629
C           -4.26170469118428        2.58857130885989       -0.57584303607173
C           -4.62323223425215        1.40261546779552       -1.30592107997833
C           -5.79226983682360        0.96401679385472       -1.90589403787584
C           -5.78301530228568       -0.25514816409868       -2.56152037652488
C           -4.61924824565686       -1.01165856659020       -2.65629596203021
C           -3.44070057424449       -0.59145825552362       -2.06880653545128
C           -3.46276883002073        0.59858246551045       -1.35658928021704
C           -1.23011477043625       -0.61528195758004        0.30959445957141
N           -2.43875056955390       -1.22213374966590        0.67261959643072
C           -3.46259196849356       -0.59723091823827        1.35577060617606
C           -3.44115109826623        0.59290643898596        2.06783584216539
C           -4.61966831518307        1.01201614842916        2.65615544497430
C           -5.78276131813685        0.25434193987258        2.56236890953901
C           -5.79132417015212       -0.96488258337163        1.90686552392697
C           -4.62231602903542       -1.40239081874470        1.30600827011693
C           -4.26020636598349       -2.58807515881088        0.57578778632498
C           -4.95938852618700       -3.72052901772898        0.19150591453111
C           -4.29961973852984       -4.68749156150572       -0.54596778600071
C           -2.96538032765333       -4.52722180214833       -0.90891364595602
C           -2.25063606893923       -3.40298828910551       -0.54314075672895
C           -2.90134019760061       -2.43867254011521        0.21327040489989
C            0.00022287355609       -1.27334315403181        0.63565104925200
C            0.00038047069706       -2.42672546587944        1.40570466432349
N            0.00041724699599       -3.39979423794004        2.03132961835559
C            1.23046622086699       -0.61505422939064        0.30975018258546
N            2.43927197705170       -1.22160930749315        0.67290269646502
C            2.90236927011009       -2.43799278415198        0.21357938125091
C            2.25227054979041       -3.40223252560800       -0.54341764187104
C            2.96736442830403       -4.52635573598442       -0.90885050409446
C            4.30136595217134       -4.68656452090419       -0.54498793696531
C            4.96051753694016       -3.71968343115577        0.19311343254026
C            4.26096400305165       -2.58731831110133        0.57709022322820
C            4.62237815921289       -1.40178893720841        1.30790341077824
C            5.79079768926461       -0.96443697300818        1.91009004916232
C            5.78155588433854        0.25453355891933        2.56601500098591
C            4.61836006871780        1.01219307742230        2.65884945300015
C            3.44042702784698        0.59323565731306        2.06926763292350
C            3.46255306449787       -0.59673096498096        1.35695305117650
C            1.23039780309275        0.61818672157730       -0.31075573284611
N            2.43920850648683        1.22480948828212       -0.67363444020021
C            2.90242569312602        2.44091785204923       -0.21380623028472
C            2.25228407368675        3.40512340788206        0.54322481083615
C            2.96767787598911        4.52872235574527        0.90967368263514
C            4.30195615407293        4.68851730736370        0.54666417633735
C            4.96109370875763        3.72174597736353       -0.19162755216940
C            4.26126995246611        2.58990677642025       -0.57655161650990
C            4.62265250143744        1.40450671776796       -1.30758598017100
C            5.79120260369501        0.96698584829476       -1.90932947602072
C            5.78192345410139       -0.25185766522795       -2.56552771053812
C            4.61860301239155       -1.00924203685193       -2.65894252979825
C            3.44053041566637       -0.59010859338514       -2.06975692919458
C            3.46262668142154        0.59977633321848       -1.35728416026603
H           -1.22022282724671        3.29050797932107        0.83383598309521
H           -2.48129402718284        5.29808394830502        1.48864620249013
H           -4.82911976898321        5.57942319720773        0.85126017128719
H           -6.00018689982983        3.83914611073569       -0.45949807909717
H           -6.68847152785125        1.56367453850980       -1.86395926892848
H           -6.68712549888330       -0.61872209809837       -3.02589888068509
H           -4.63297217146240       -1.94393089470056       -3.20024318539960
H           -2.53306032292290       -1.16584522856280       -2.17457303705833
H           -2.53398987863401        1.16816730734745        2.17292638906937
H           -4.63388764578539        1.94432646515643        3.20002261142526
H           -6.68686589537937        0.61706551205078        3.02741930781195
H           -6.68695447408926       -1.56544592043569        1.86569930569774
H           -5.99746423558785       -3.84052255941626        0.46110221321212
H           -4.82563925534754       -5.57982248642108       -0.85025255054234
H           -2.47865648678534       -5.29610794336473       -1.48968955296206
H           -1.21912521303923       -3.28713162395493       -0.83618075876999
H            1.22095294884385       -3.28639578695055       -0.83714206409652
H            2.48111730144098       -5.29519031113709       -1.49008814242879
H            4.82767975718451       -5.57879001032800       -0.84905278566094
H            5.99839591196610       -3.83965431309219        0.46345973987783
H            6.68646318854444       -1.56499065370398        1.86966761855213
H            6.68515575354787        0.61705848149380        3.03218990117610
H            4.63202002491006        1.94432098056674        3.20303918686427
H            2.53316948044638        1.16846112805926        2.17362012144442
H            1.22075278297432        3.28957437458413        0.83633065115280
H            2.48145610742789        5.29747745030311        1.49104671267194
H            4.82852497887926        5.58031913942935        0.85156050149494
H            5.99919585276139        3.84137748657012       -0.46129663967963
H            6.68703313194857        1.56726541326479       -1.86833646011979
H            6.68565086152628       -0.61455387843466       -3.03133779407931
H            4.63229376361214       -1.94131008744664       -3.20323865363395
H            2.53318790031201       -1.16513513251373       -2.17453481676008
