94
 energy: -153.864163491452 gnorm: 0.000079182622 xtb: 6.7.1 (edcfbbe)
N            0.00000297581992        3.33933355986079       -2.09848050462914
C            0.00060228281084        2.40656548816083       -1.43331099480252
C            0.00076363034206        1.22492433686897       -0.65365384893930
C           -1.22542552593764        0.62139367826231       -0.33313844953784
N           -2.42280109045687        1.23729370591126       -0.69103108130863
C           -2.87698798286308        2.46363725947047       -0.22306456955182
C           -2.20922613847085        3.43245927790473        0.50653383943309
C           -2.91538687007965        4.55958078260114        0.88294650641193
C           -4.25798186217460        4.71645741885393        0.55340802137003
C           -4.93342410821490        3.74319792736115       -0.15627692397668
C           -4.24272158083144        2.60557474742878       -0.54808525194127
C           -4.62781194104799        1.41416988487165       -1.25442766945801
C           -5.81720856611557        0.97733644561936       -1.81928610410190
C           -5.83401330664889       -0.24568519060317       -2.46159230700689
C           -4.67757014454115       -1.01015748101438       -2.58104817046837
C           -3.48062640076735       -0.59149200608325       -2.03120565588603
C           -3.47771455875021        0.60234402637047       -1.32929202869682
C           -1.22527123009099       -0.61853281093929        0.33049882139825
N           -2.42239517442210       -1.23502018733086        0.68824433082885
C           -3.47698124689492       -0.60126940212758        1.32814415391239
C           -3.48022125590652        0.59265726236226        2.02989684211773
C           -4.67677552825166        1.00988314433881        2.58166557816776
C           -5.83244460249949        0.24391992491497        2.46425732769487
C           -5.81519761319421       -0.97911888463686        1.82199977845506
C           -4.62621726760392       -1.41450687543942        1.25514749166970
C           -4.24084596330608       -2.60544103247654        0.54817975483623
C           -4.93077944505265       -3.74390299141321        0.15742957040568
C           -4.25531573510366       -4.71625387929228       -0.55347266850337
C           -2.91346440767038       -4.55768330841444       -0.88525509389567
C           -2.20805295692315       -3.42977532349115       -0.50983094748812
C           -2.87580235662856       -2.46185216378926        0.22099244966729
C            0.00097441903868       -1.22161089321033        0.65146498754716
C            0.00071532136215       -2.40333951002370        1.43099869714349
N            0.00001141745469       -3.33641132064691        2.09569871528648
C            1.22717159456305       -0.61808387705360        0.33096870871245
N            2.42423095474065       -1.23428646096567        0.68906068216438
C            2.87622270117419       -2.46285878234691        0.22504211608124
C            2.20805891805200       -3.43103530224809       -0.50508938645187
C            2.91188226671705       -4.56130263254567       -0.87634540810469
C            4.25270042853895       -4.72187100709225       -0.54136687104333
C            4.92881318266365       -3.74903287860266        0.16825143746960
C            4.24043898848042       -2.60819719691686        0.55484168876297
C            4.62673370795616       -1.41643228034681        1.25991498334144
C            5.81548077046817       -0.98221067444859        1.82816333093359
C            5.83382525720308        0.24193248445880        2.46826615562860
C            4.67934709701579        1.01022755787626        2.58214825090714
C            3.48302197321137        0.59417718191409        2.02901147613050
C            3.47880841804674       -0.60102284258883        1.32941284277168
C            1.22708381621281        0.62188349928682       -0.33261188259284
N            2.42423056429358        1.23824244538374       -0.69028314873408
C            2.87651628388954        2.46652646402814       -0.22571105953927
C            2.20828152307451        3.43517379682099        0.50372893004018
C            2.91259949885882        4.56483470721426        0.87596158657124
C            4.25392801820754        4.72443218296693        0.54258866787294
C            4.93002789738688        3.75125222460759       -0.16657017127681
C            4.24116517695515        2.61104955326627       -0.55411737751349
C            4.62746959141409        1.41913338390624       -1.25891696222381
C            5.81662346504501        0.98420028859983       -1.82576172605554
C            5.83502562871476       -0.24009162313065       -2.46558334693905
C            4.68025195276035       -1.00776292774838       -2.58061113027802
C            3.48348881914946       -0.59088807689360       -2.02902778237855
C            3.47914934095198        0.60441732392032       -1.32962054787163
H           -1.17153518521214        3.32130328788517        0.78319975462506
H           -2.41326078243613        5.33160653200018        1.44639045480570
H           -4.77613518863272        5.61099276615871        0.86449581444702
H           -5.97841396519671        3.85718466892413       -0.40020359985221
H           -6.70667806138715        1.58527519541700       -1.75870031050492
H           -6.75228491574916       -0.60884620177256       -2.89770473707795
H           -4.71129088106910       -1.94801937182373       -3.11453625279173
H           -2.58180340495651       -1.17679623643610       -2.15551422140721
H           -2.58191891997409        1.17908400968562        2.15267989561957
H           -4.71078335520181        1.94776686287052        3.11509600268763
H           -6.75042876712162        0.60595167685618        2.90191189347233
H           -6.70400129999745       -1.58818797449831        1.76299486609501
H           -5.97520970524783       -3.85924032502117        0.40311613004182
H           -4.77288833824110       -5.61138784906228       -0.86380750734267
H           -2.41135558857854       -5.32900328177830       -1.44968331128918
H           -1.17095080155317       -3.31728391001765       -0.78818895438989
H            1.17180872464442       -3.31704720584089       -0.78600846149059
H            2.40931223353056       -5.33294005353474       -1.43992162489943
H            4.76896639758738       -5.61895913069376       -0.84820911601661
H            5.97253447413845       -3.86590035741745        0.41622274368698
H            6.70325973715937       -1.59303644590650        1.77190481135277
H            6.75165686221731        0.60301592827890        2.90702403666452
H            4.71407733445507        1.94898038488715        3.11400195219484
H            2.58560379063797        1.18244378484429        2.14932342490913
H            1.17162206830394        3.32203821587812        0.78346607666895
H            2.41000284418969        5.33677665726321        1.43910100883231
H            4.77057604426440        5.62101049215505        0.85027888950128
H            5.97409928966395        3.86731997741402       -0.41343851981492
H            6.70463783432366        1.59460158498378       -1.76865268302258
H            6.75316637273116       -0.60178684538782       -2.90318670867350
H            4.71508540051058       -1.94667113882715       -3.11218939861263
H            2.58587929962148       -1.17865261139484       -2.15035221901332
