  55
        -91.05363329
 C         -4.9700087663        3.1636955716       -2.0595484915
 C         -3.6344150628        2.8546500705       -2.2434840757
 C         -3.0739154726        1.7576725276       -1.6121776736
 C         -3.8415986423        0.9522000388       -0.7758935192
 C         -5.2017659095        1.2629858690       -0.6118112459
 C         -5.7544354431        2.3613637441       -1.2461995891
 O         -6.0368787368        0.5005587302        0.1602231898
 C         -5.5007267594       -0.5891092923        0.7921433228
 C         -6.3512985964       -1.3497706019        1.5746793041
 C         -5.8676678461       -2.4538954701        2.2584380022
 C         -4.5277872312       -2.7845422153        2.1658500725
 C         -3.6710103778       -2.0300791287        1.3831285574
 C         -4.1436843326       -0.9311229778        0.6715531052
 N         -3.3138872830       -0.1548777474       -0.1251350102
 C         -1.9524905713       -0.5122033598       -0.3065744826
 C         -1.6315288611       -1.6663888357       -1.0113837810
 C         -0.3072137599       -2.0169763064       -1.2020734401
 C          0.7266907334       -1.2221565218       -0.7057859472
 N          2.0083760638       -1.5235511918       -0.8844312583
 C          2.9838643063       -0.7602261196       -0.4072864518
 C          4.3556046628       -1.0931354435       -0.6283733276
 C          4.6654861363       -2.2463500410       -1.3683095944
 C          5.9680026104       -2.5978925517       -1.6074728349
 C          6.9993708651       -1.7999875574       -1.1101476701
 C          6.7147541952       -0.6693587796       -0.3829236313
 C          5.3937108086       -0.2791640343       -0.1172278252
 C          5.0594910750        0.9015845733        0.6436750851
 C          6.0274818040        1.7537891174        1.1959181222
 C          5.6776363800        2.8714457153        1.9146664071
 C          4.3337513139        3.1901084449        2.1144435628
 C          3.3611970805        2.3795841541        1.5901672567
 C          3.7000780765        1.2323459994        0.8537423456
 C          2.6535021512        0.4123956812        0.3285229262
 N          1.3783343645        0.7319239844        0.5087937259
 C          0.3901862965       -0.0207516927        0.0297452549
 C         -0.9509050256        0.3008825507        0.2156550711
 H         -5.4070289797        4.0191062737       -2.5495565261
 H         -3.0179896217        3.4663217375       -2.8836088445
 H         -2.0344290244        1.5182367198       -1.7679220145
 H         -6.8015311029        2.5671037663       -1.0930067599
 H         -7.3873006015       -1.0580867254        1.6367342303
 H         -6.5368147454       -3.0436896206        2.8643555724
 H         -4.1389260581       -3.6339352751        2.7056609364
 H         -2.6254398640       -2.2871219910        1.3223563507
 H         -2.4209479178       -2.2844486335       -1.4115708888
 H         -0.0465362130       -2.9079727393       -1.7503977334
 H          3.8451077397       -2.8411540125       -1.7397111006
 H          6.1988712604       -3.4856174263       -2.1773338263
 H          8.0273630838       -2.0731453939       -1.2982951318
 H          7.5354330501       -0.0750524567       -0.0140937349
 H          7.0749529287        1.5362077710        1.0608566003
 H          6.4470761505        3.5072359199        2.3276741685
 H          4.0657197238        4.0701643708        2.6799280340
 H          2.3132221272        2.5975573882        1.7279857616
 H         -1.2014201527        1.1877659584        0.7758774463
