  55
  -90.7383216848000       0.225046746251402      !
 C         -4.9700087663        3.1636955716       -2.0595484915
 C         -3.6344150628        2.8546500705       -2.2434840757
 C         -3.0739154726        1.7576725276       -1.6121776736
 C         -3.8415986423        0.9522000388       -0.7758935192
 C         -5.2017659095        1.2629858690       -0.6118112459
 C         -5.7544354431        2.3613637441       -1.2461995891
 O         -6.0368787368        0.5005587302        0.1602231898
 C         -5.5007267594       -0.5891092923        0.7921433228
 C         -6.3512985964       -1.3497706019        1.5746793041
 C         -5.8676678461       -2.4538954701        2.2584380022
 C         -4.5277872312       -2.7845422153        2.1658500725
 C         -3.6710103778       -2.0300791287        1.3831285574
 C         -4.1436843326       -0.9311229778        0.6715531052
 N         -3.3138872830       -0.1548777474       -0.1251350102
 C         -1.9524905713       -0.5122033598       -0.3065744826
 C         -1.6315288611       -1.6663888357       -1.0113837810
 C         -0.3072137599       -2.0169763064       -1.2020734401
 C          0.7266907334       -1.2221565218       -0.7057859472
 N          2.0083760638       -1.5235511918       -0.8844312583
 C          2.9838643063       -0.7602261196       -0.4072864518
 C          4.3556046628       -1.0931354435       -0.6283733276
 C          4.6654861363       -2.2463500410       -1.3683095944
 C          5.9680026104       -2.5978925517       -1.6074728349
 C          6.9993708651       -1.7999875574       -1.1101476701
 C          6.7147541952       -0.6693587796       -0.3829236313
 C          5.3937108086       -0.2791640343       -0.1172278252
 C          5.0594910750        0.9015845733        0.6436750851
 C          6.0274818040        1.7537891174        1.1959181222
 C          5.6776363800        2.8714457153        1.9146664071
 C          4.3337513139        3.1901084449        2.1144435628
 C          3.3611970805        2.3795841541        1.5901672567
 C          3.7000780765        1.2323459994        0.8537423456
 C          2.6535021512        0.4123956812        0.3285229262
 N          1.3783343645        0.7319239844        0.5087937259
 C          0.3901862965       -0.0207516927        0.0297452549
 C         -0.9509050256        0.3008825507        0.2156550711
 H         -5.4070289797        4.0191062737       -2.5495565261
 H         -3.0179896217        3.4663217375       -2.8836088445
 H         -2.0344290244        1.5182367198       -1.7679220145
 H         -6.8015311029        2.5671037663       -1.0930067599
 H         -7.3873006015       -1.0580867254        1.6367342303
 H         -6.5368147454       -3.0436896206        2.8643555724
 H         -4.1389260581       -3.6339352751        2.7056609364
 H         -2.6254398640       -2.2871219910        1.3223563507
 H         -2.4209479178       -2.2844486335       -1.4115708888
 H         -0.0465362130       -2.9079727393       -1.7503977334
 H          3.8451077397       -2.8411540125       -1.7397111006
 H          6.1988712604       -3.4856174263       -2.1773338263
 H          8.0273630838       -2.0731453939       -1.2982951318
 H          7.5354330501       -0.0750524567       -0.0140937349
 H          7.0749529287        1.5362077710        1.0608566003
 H          6.4470761505        3.5072359199        2.3276741685
 H          4.0657197238        4.0701643708        2.6799280340
 H          2.3132221272        2.5975573882        1.7279857616
 H         -1.2014201527        1.1877659584        0.7758774463
  55
  -90.7382038816000       0.198670843636819      !
 C         -5.4608914702        2.5474860369       -2.6732640142
 C         -4.1201962598        2.3145644322       -2.9227088982
 C         -3.3977170879        1.4486354718       -2.1200758837
 C         -4.0099205525        0.7984982923       -1.0530469222
 C         -5.3701410585        1.0455353227       -0.8032807313
 C         -6.0846860290        1.9125793398       -1.6103174414
 O         -6.0393667621        0.4522352832        0.2341787849
 C         -5.3348228344       -0.4012991009        1.0412787218
 C         -6.0172488731       -1.0001626987        2.0850496901
 C         -5.3598446145       -1.8774945236        2.9336722350
 C         -4.0194021084       -2.1544686555        2.7325508264
 C         -3.3293808224       -1.5612327733        1.6894152973
 C         -3.9730409764       -0.6752898224        0.8309775718
 N         -3.3148079088       -0.0698727497       -0.2272241538
 C         -1.9475454618       -0.3669858236       -0.4871815775
 C         -1.6227350294       -1.2969575950       -1.4662241702
 C         -0.2966400867       -1.5970737478       -1.7224831862
 C          0.7307379349       -0.9775248488       -1.0099173772
 N          2.0136406819       -1.2483821126       -1.2277455090
 C          2.9841588509       -0.6489018446       -0.5491967114
 C          4.3565341408       -0.9642398117       -0.7920440156
 C          4.6714979329       -1.9362822855       -1.7560659860
 C          5.9744850941       -2.2729774951       -2.0135349963
 C          7.0011860103       -1.6418034307       -1.3097600764
 C          6.7116015544       -0.6869240526       -0.3650324297
 C          5.3898844455       -0.3165210995       -0.0750723882
 C          5.0505635944        0.6809231441        0.9122642906
 C          6.0144121646        1.3813187161        1.6528898712
 C          5.6597241483        2.3223217431        2.5893161251
 C          4.3147518366        2.6068132083        2.8294689446
 C          3.3461870035        1.9440509040        2.1222745632
 C          3.6901907952        0.9806466750        1.1595054297
 C          2.6481980599        0.3192375787        0.4383433825
 N          1.3716283795        0.5940141848        0.6747476495
 C          0.3884589323       -0.0037305640        0.0055994820
 C         -0.9546729303        0.2764826353        0.2431201479
 H         -6.0243063733        3.2218154760       -3.2983384146
 H         -3.6269318984        2.8074240885       -3.7460845888
 H         -2.3512662571        1.2706167541       -2.3126125172
 H         -7.1270984526        2.0773069580       -1.3897856639
 H         -7.0622581261       -0.7683743852        2.2145815860
 H         -5.8986371029       -2.3412486851        3.7445002048
 H         -3.5013794841       -2.8376827917        3.3875340720
 H         -2.2854713864       -1.7815995011        1.5313304639
 H         -2.4095354190       -1.7833004712       -2.0226391851
 H         -0.0300173221       -2.3201802770       -2.4764422609
 H          3.8545253450       -2.4065842465       -2.2815708919
 H          6.2092201559       -3.0224556341       -2.7546809016
 H          8.0294884820       -1.9062428588       -1.5087097177
 H          7.5288250271       -0.2199974901        0.1612211215
 H          7.0626007441        1.1866627691        1.4910165862
 H          6.4259582718        2.8451668733        3.1427243997
 H          4.0426694308        3.3462529929        3.5679887909
 H          2.2976277061        2.1427595593        2.2828086312
 H         -1.2120013539        1.0015064719        0.9989668444
  55
  -90.7378477130000       0.136285728674073      !
 C         -4.8591884951        2.8818544680       -2.4693522092
 C         -3.5090332936        2.5851266976       -2.5160013111
 C         -2.9823082244        1.5852167474       -1.7168462391
 C         -3.8004919016        0.8676344107       -0.8494111465
 C         -5.1712489534        1.1718252096       -0.8136155634
 C         -5.6903536232        2.1708798165       -1.6179522783
 O         -6.0467071256        0.4986248606       -0.0036737032
 C         -5.5432456444       -0.5002601839        0.7864023861
 C         -6.4329747913       -1.1763787712        1.6018104068
 C         -5.9823600844       -2.1896579153        2.4334698148
 C         -4.6387405637       -2.5187704170        2.4505608800
 C         -3.7423794266       -1.8495436478        1.6352814445
 C         -4.1797751368       -0.8382113196        0.7855177604
 N         -3.3076252566       -0.1450800921       -0.0381199781
 C         -1.9492930919       -0.5451209195       -0.1647724507
 C         -1.6394744291       -1.6945505562       -0.8811593478
 C         -0.3177432097       -2.0426903031       -1.0929832115
 C          0.7212986717       -1.2494864248       -0.6047846154
 N          1.9988855118       -1.5096021816       -0.8609236636
 C          2.9789993185       -0.7450731626       -0.3959681796
 C          4.3391407540       -0.9857598972       -0.7612700522
 C          4.6279713034       -2.0170692415       -1.6702463675
 C          5.9144216013       -2.2516666904       -2.0792800144
 C          6.9502637219       -1.4575112221       -1.5853059092
 C          6.6872981796       -0.4509788502       -0.6874283481
 C          5.3835092565       -0.1838602714       -0.2443436845
 C          5.0709252138        0.8661871091        0.6961809752
 C          6.0531254496        1.6546575638        1.3136766959
 C          5.7237522452        2.6516665087        2.2001671828
 C          4.3871942306        2.9083567423        2.5087732244
 C          3.4013049538        2.1554268129        1.9263929466
 C          3.7195211681        1.1278372713        1.0231974368
 C          2.6621841708        0.3506785106        0.4556797603
 N          1.3905304636        0.6374787153        0.7026595629
 C          0.3952018012       -0.0850506968        0.1924188495
 C         -0.9437870735        0.2419606681        0.3872359973
 H         -5.2705693745        3.6591288235       -3.0934588931
 H         -2.8548679506        3.1289210822       -3.1796420969
 H         -1.9304622233        1.3528635214       -1.7641981466
 H         -6.7477155909        2.3745537765       -1.5636151797
 H         -7.4727455439       -0.8928779483        1.5715678911
 H         -6.6819125243       -2.7122597291        3.0662341263
 H         -4.2794525630       -3.3001227774        3.1019990978
 H         -2.6940315796       -2.1032818044        1.6520400823
 H         -2.4348993836       -2.3019280891       -1.2857949675
 H         -0.0634001315       -2.9196266392       -1.6662505732
 H          3.8036993826       -2.6076822340       -2.0396512594
 H          6.1285015377       -3.0416002875       -2.7837673677
 H          7.9644203164       -1.6343979871       -1.9123614586
 H          7.5098389959        0.1473786064       -0.3292886326
 H          7.0954817718        1.4777107536        1.1013139990
 H          6.5036915128        3.2391714190        2.6620675439
 H          4.1352793905        3.6942343831        3.2052403030
 H          2.3589537083        2.3258380849        2.1483909815
 H         -1.1890524271        1.1192464396        0.9646135391
  55
  -90.7378472989000       0.136226021557062      !
 C         -5.8829253325        2.2200071023       -2.7667654409
 C         -4.5471676304        2.1012090934       -3.1063258001
 C         -3.6817793556        1.3741001422       -2.3071410230
 C         -4.1422641869        0.7472795647       -1.1530089260
 C         -5.4955598241        0.8924560554       -0.8050198435
 C         -6.3546425071        1.6183443907       -1.6106486397
 O         -6.0189474301        0.3411255640        0.3336918047
 C         -5.1711121948       -0.3591265839        1.1495323619
 C         -5.7065777711       -0.8969131085        2.3066466151
 C         -4.9080819249       -1.6334643487        3.1672093944
 C         -3.5760431549       -1.8395126285        2.8574378000
 C         -3.0332027150       -1.3052918697        1.7017863137
 C         -3.8143807714       -0.5442146930        0.8366455079
 N         -3.3035916304        0.0115945590       -0.3295271622
 C         -1.9402812372       -0.1938629508       -0.6662631286
 C         -1.6031470074       -1.0126366866       -1.7372291914
 C         -0.2738125820       -1.2790740462       -2.0140955698
 C          0.7472021602       -0.7539517755       -1.2206711113
 N          2.0288786842       -1.0479025830       -1.4133633872
 C          2.9871919719       -0.5592539380       -0.6351132895
 C          4.3508950558       -0.9497046868       -0.8071518915
 C          4.6716415434       -1.8812575901       -1.8086156518
 C          5.9631245335       -2.3027090484       -1.9879032076
 C          6.9727270622       -1.7992957291       -1.1663452715
 C          6.6782894427       -0.8829730387       -0.1855532347
 C          5.3683619078       -0.4280819817        0.0265183175
 C          5.0254372935        0.5307292703        1.0503236744
 C          5.9766177348        1.1203315159        1.8963880916
 C          5.6159146655        2.0258064953        2.8650835513
 C          4.2780055482        2.3855173272        3.0327135620
 C          3.3220110149        1.8299058380        2.2234425068
 C          3.6726034231        0.9034189467        1.2276370328
 C          2.6432161482        0.3486459340        0.4056728130
 N          1.3685457507        0.6515653017        0.6122091864
 C          0.3938778047        0.1301955440       -0.1295051058
 C         -0.9497294492        0.3932397064        0.1156539683
 H         -6.5586935266        2.7832009036       -3.3904633213
 H         -4.1688515565        2.5781103986       -3.9971851559
 H         -2.6390924887        1.2907883863       -2.5702303921
 H         -7.3876443151        1.7013771739       -1.3131471305
 H         -6.7515044549       -0.7296267892        2.5127007248
 H         -5.3309466496       -2.0468253921        4.0689306028
 H         -2.9476452315       -2.4206959540        3.5143714384
 H         -1.9962899771       -1.4797520771        1.4643164020
 H         -2.3829334476       -1.4524708175       -2.3403621146
 H         -0.0013288377       -1.9256015335       -2.8328486586
 H          3.8675611823       -2.2558158039       -2.4234480758
 H          6.2012879088       -3.0235556282       -2.7558289229
 H          7.9909238750       -2.1339440105       -1.3006978879
 H          7.4813340645       -0.5156821384        0.4333691907
 H          7.0195203404        0.8668089582        1.7921519311
 H          6.3723373087        2.4622909737        3.5007836579
 H          4.0015127913        3.0979873514        3.7956320800
 H          2.2790854522        2.0879115806        2.3259451824
 H         -1.2121708678        1.0488495372        0.9308917962
  55
  -90.7377889280000       0.128066241812893      !
 C         -5.7155497382        1.9585015332       -3.0526034554
 C         -4.3710144903        1.7686715640       -3.3158397149
 C         -3.5623276969        1.1134888060       -2.4034648701
 C         -4.0876141351        0.6252960868       -1.2101215259
 C         -5.4466302817        0.8535912840       -0.9383107553
 C         -6.2497001102        1.5071574016       -1.8563916718
 O         -6.0322306629        0.4601673309        0.2345057310
 C         -5.2460269963       -0.1803834212        1.1540355651
 C         -5.8481432374       -0.5630800952        2.3397103116
 C         -5.1193889903       -1.2399379094        3.3044821227
 C         -3.7914180897       -1.5459554581        3.0684752549
 C         -3.1817887994       -1.1648511048        1.8856085702
 C         -3.8896136158       -0.4584679526        0.9169837538
 N         -3.3092692621       -0.0485775607       -0.2771897877
 C         -1.9454255348       -0.3240788609       -0.5481589748
 C         -1.6063101859       -1.1612071058       -1.6054370176
 C         -0.2773858603       -1.4177745162       -1.8899841582
 C          0.7446860714       -0.8668698329       -1.1161608406
 N          2.0307130114       -1.0840832851       -1.3695633130
 C          2.9934707926       -0.5671205634       -0.6159308117
 C          4.3707707911       -0.8013869752       -0.9149881459
 C          4.7016125901       -1.5623877189       -2.0485253846
 C          6.0105819349       -1.7940683522       -2.3807620188
 C          7.0275351148       -1.2678110471       -1.5828104332
 C          6.7223090918       -0.5254065655       -0.4674834802
 C          5.3941437840       -0.2699552025       -0.0952881594
 C          5.0385008341        0.5025331839        1.0715222306
 C          5.9895525581        1.0263642259        1.9598403540
 C          5.6191359705        1.7582499886        3.0623150179
 C          4.2708834949        2.0029768544        3.3267026501
 C          3.3145168705        1.5055519175        2.4808293543
 C          3.6743085328        0.7509081972        1.3519700956
 C          2.6434791112        0.2341933854        0.5070899500
 N          1.3640988450        0.4737477699        0.7643706368
 C          0.3891931888       -0.0229889149        0.0059877645
 C         -0.9546145567        0.2438708159        0.2483516337
 H         -6.3479790940        2.4629054748       -3.7655804119
 H         -3.9404427985        2.1319614333       -4.2360076956
 H         -2.5129640010        0.9802545391       -2.6123729618
 H         -7.2891764390        1.6554713101       -1.6117133656
 H         -6.8897723222       -0.3249867126        2.4837829438
 H         -5.5936986931       -1.5315437658        4.2279444893
 H         -3.2184554160       -2.0862555987        3.8059158722
 H         -2.1493114253       -1.4181442054        1.7071267280
 H         -2.3855497795       -1.6081420262       -2.2040579644
 H         -0.0042577968       -2.0587896519       -2.7128000116
 H          3.8921273898       -1.9512104427       -2.6471522732
 H          6.2576050375       -2.3761334633       -3.2561168711
 H          8.0605747704       -1.4445043970       -1.8444312189
 H          7.5320626588       -0.1310018354        0.1255158479
 H          7.0396474892        0.8529125517        1.7864174445
 H          6.3755919134        2.1445634067        3.7296377441
 H          3.9865781781        2.5777023423        4.1956018908
 H          2.2635281929        1.6732701773        2.6598202292
 H         -1.2152941129        0.9021436387        1.0620836158
  55
  -90.7373623454000       8.154378680889504E-002 !
 C         -4.9737491735        3.4061422033       -1.5935147504
 C         -3.6657237260        3.0826667051       -1.9057318996
 C         -3.1075463238        1.8990242685       -1.4546945553
 C         -3.8471374574        1.0181212991       -0.6701718057
 C         -5.1858827887        1.3391656898       -0.3913657245
 C         -5.7362343986        2.5257922274       -0.8429484672
 O         -6.0049027746        0.5031148472        0.3183015105
 C         -5.4735211195       -0.6745537706        0.7696038309
 C         -6.3156212166       -1.5144303172        1.4771261937
 C         -5.8377538539       -2.7083171987        1.9927097339
 C         -4.5082227263       -3.0449156352        1.8149063328
 C         -3.6608491812       -2.2107643920        1.1065378596
 C         -4.1309921410       -1.0244664336        0.5495411212
 N         -3.3156668603       -0.1710537929       -0.1854772145
 C         -1.9550110597       -0.4977888485       -0.4077436270
 C         -1.6240036020       -1.6391168550       -1.1304048060
 C         -0.2980407836       -1.9927527140       -1.3031140082
 C          0.7310401225       -1.2071287291       -0.7827993663
 N          2.0126994999       -1.5392670755       -0.8935643483
 C          2.9821449955       -0.7744573950       -0.4063126095
 C          4.3510724051       -1.1754347009       -0.4864580849
 C          4.6630100158       -2.4288669990       -1.0388970304
 C          5.9597572675       -2.8678748311       -1.0949462152
 C          6.9833829683       -2.0594035407       -0.5985747825
 C          6.6978745856       -0.8256933760       -0.0649876432
 C          5.3831495118       -0.3416964768        0.0047435335
 C          5.0487338402        0.9503743280        0.5554948809
 C          6.0157401582        1.8701102078        0.9877074503
 C          5.6647146426        3.0909501235        1.5116961651
 C          4.3208680702        3.4478542801        1.6310252117
 C          3.3494861652        2.5755794492        1.2148221447
 C          3.6898668982        1.3267915819        0.6691896733
 C          2.6464933907        0.4591873313        0.2196804633
 N          1.3703810914        0.7936182147        0.3594022044
 C          0.3866657786        0.0142489998       -0.0847202160
 C         -0.9557947123        0.3242000002        0.1074019105
 H         -5.4071351006        4.3315877646       -1.9377683823
 H         -3.0692288964        3.7508039153       -2.5072651969
 H         -2.0907856590        1.6512071377       -1.7133352138
 H         -6.7640019366        2.7386143463       -0.5961996411
 H         -7.3407321848       -1.2107400382        1.6161178389
 H         -6.5005311417       -3.3604634172        2.5387555552
 H         -4.1186664802       -3.9613776081        2.2301692018
 H         -2.6229899914       -2.4768862270        0.9874564673
 H         -2.4074186656       -2.2514706190       -1.5506006263
 H         -0.0326161404       -2.8851958563       -1.8468898215
 H          3.8482440929       -3.0332625345       -1.4072408157
 H          6.1916755116       -3.8353989833       -1.5147500224
 H          8.0055116162       -2.4071395490       -0.6316613738
 H          7.5108623001       -0.2283412144        0.3159413726
 H          7.0630909991        1.6268084910        0.9054078777
 H          6.4331176101        3.7790842841        1.8323565618
 H          4.0519719847        4.4087517190        2.0439091072
 H          2.3018744065        2.8252135847        1.2856098775
 H         -1.2087051166        1.2090860244        0.6699899603
  55
  -90.7371594193000       6.578585102593283E-002 !
 C         -4.6468815775        3.0449424976       -2.2825065390
 C         -3.3097337324        2.6929534566       -2.3064660351
 C         -2.8520487862        1.6217880901       -1.5590281205
 C         -3.7253655943        0.8858129288       -0.7630121906
 C         -5.0844791797        1.2398272191       -0.7609077191
 C         -5.5348302936        2.3113822695       -1.5120348685
 O         -6.0186200269        0.5461132901       -0.0393010448
 C         -5.5876824835       -0.5269221490        0.6936837163
 C         -6.5406725780       -1.2279002563        1.4109094888
 C         -6.1674134246       -2.3114913186        2.1902034751
 C         -4.8361987318       -2.6818815599        2.2577133437
 C         -3.8773120731       -1.9880979681        1.5397884052
 C         -4.2370990815       -0.9110532795        0.7350520289
 N         -3.3023186707       -0.1949944002        0.0024078754
 C         -1.9502659959       -0.6180121757       -0.0775452793
 C         -1.6333324677       -1.8029938653       -0.7312957836
 C         -0.3098555500       -2.1605752685       -0.9146750826
 C          0.7265892259       -1.3363086786       -0.4741330042
 N          2.0045757191       -1.5952436140       -0.7279265757
 C          2.9786615479       -0.7868696464       -0.3280918278
 C          4.3343190474       -1.0151571507       -0.7167498595
 C          4.6266475107       -2.0940064045       -1.5676797866
 C          5.9061350699       -2.3160892642       -2.0047835968
 C          6.9314014064       -1.4604562274       -1.5991515794
 C          6.6657603014       -0.4074299831       -0.7571121121
 C          5.3694598867       -0.1524187114       -0.2858470103
 C          5.0551266356        0.9454161058        0.5978285575
 C          6.0311803762        1.8008883580        1.1300013187
 C          5.6990056606        2.8425616059        1.9624301584
 C          4.3658209231        3.0782168387        2.3007605387
 C          3.3861079388        2.2603575687        1.8014572800
 C          3.7075899549        1.1877053017        0.9536571821
 C          2.6566992345        0.3502406276        0.4654669403
 N          1.3850489239        0.6278471791        0.7208042683
 C          0.3938230208       -0.1337508351        0.2615048146
 C         -0.9459351327        0.1924981163        0.4448330145
 H         -5.0041084342        3.8797721574       -2.8640582501
 H         -2.6107379263        3.2488312153       -2.9118175971
 H         -1.8098018065        1.3494582213       -1.5948341848
 H         -6.5853423619        2.5519206521       -1.4811001437
 H         -7.5678607525       -0.9064247377        1.3471185752
 H         -6.9159501342       -2.8540742791        2.7453303256
 H         -4.5350907319       -3.5148916532        2.8737089646
 H         -2.8391828724       -2.2744049885        1.6011046374
 H         -2.4240889602       -2.4295675376       -1.1153512244
 H         -0.0522126399       -3.0656689273       -1.4408126634
 H          3.8102699209       -2.7317783480       -1.8703444456
 H          6.1226097037       -3.1434197614       -2.6641605446
 H          7.9392234287       -1.6263842298       -1.9506443702
 H          7.4796662458        0.2376013303       -0.4665673892
 H          7.0711563857        1.6425221336        0.8928340241
 H          6.4742469455        3.4821140749        2.3583651355
 H          4.1118021352        3.8988391506        2.9551115323
 H          2.3466975245        2.4127853498        2.0488234942
 H         -1.1943294458        1.0928874166        0.9841555986
  55
  -90.7363647603000       2.837478023292332E-002 !
 C         -4.8745392816        3.5158118110       -1.3544930071
 C         -3.5746509748        3.1780193541       -1.6850363831
 C         -3.0513363354        1.9509607129       -1.3157495229
 C         -3.8161893646        1.0385857050       -0.5930249774
 C         -5.1510642480        1.3719878283       -0.3097878981
 C         -5.6665059917        2.6025878993       -0.6776190928
 O         -6.0029024515        0.5056019465        0.3196735717
 C         -5.5038646935       -0.7097098525        0.7020790529
 C         -6.3803495444       -1.5774187530        1.3300939950
 C         -5.9376490645       -2.8093166971        1.7831975467
 C         -4.6071953984       -3.1537996411        1.6286461629
 C         -3.7263291191       -2.2921923533        0.9982360607
 C         -4.1617582036       -1.0690867716        0.4943977915
 N         -3.3149556079       -0.1898269952       -0.1738861936
 C         -1.9554037384       -0.5229319188       -0.3845230129
 C         -1.6197979683       -1.6617797380       -1.1100448712
 C         -0.2935703365       -2.0225440788       -1.2661333343
 C          0.7340798799       -1.2381650574       -0.7415740022
 N          2.0157783842       -1.5759140935       -0.8335353429
 C          2.9834236665       -0.7960722377       -0.3671488619
 C          4.3524911603       -1.2012210222       -0.4192509144
 C          4.6661709741       -2.4881096330       -0.8870522696
 C          5.9626151697       -2.9317105419       -0.9037634351
 C          6.9839999540       -2.0945093368       -0.4524532351
 C          6.6970716322       -0.8274798306       -0.0042501087
 C          5.3830209598       -0.3379574953        0.0219041985
 C          5.0476487842        0.9903240862        0.4778620849
 C          6.0142894841        1.9480613322        0.8182861158
 C          5.6617688931        3.2053203114        1.2467327020
 C          4.3171262855        3.5608816982        1.3609150260
 C          3.3459606336        2.6504328779        1.0354367275
 C          3.6878334314        1.3651025495        0.5838430661
 C          2.6456096754        0.4622211466        0.2070494310
 N          1.3687451676        0.7899259424        0.3532294166
 C          0.3867387339       -0.0074175973       -0.0613405597
 C         -0.9559366992        0.2959872967        0.1369088499
 H         -5.2793749715        4.4763574390       -1.6304863972
 H         -2.9558334330        3.8699201693       -2.2349630525
 H         -2.0409185145        1.6956960272       -1.5909686763
 H         -6.6922598436        2.8213129468       -0.4275468789
 H         -7.4040373816       -1.2640663993        1.4577050767
 H         -6.6272515323       -3.4838966233        2.2649439779
 H         -4.2430699941       -4.0987041146        2.0010289730
 H         -2.6885719109       -2.5669076123        0.9004223907
 H         -2.3994759466       -2.2674265737       -1.5464878481
 H         -0.0270437940       -2.9180713938       -1.8043352791
 H          3.8529006351       -3.1155392329       -1.2183665575
 H          6.1957159023       -3.9250776345       -1.2574154579
 H          8.0056798739       -2.4452185733       -0.4547704241
 H          7.5078503436       -0.2075626598        0.3441151353
 H          7.0620049075        1.7076749128        0.7315244041
 H          6.4295753718        3.9241902702        1.4927351754
 H          4.0471771007        4.5507863810        1.6974121069
 H          2.2976364684        2.8974772725        1.1052022122
 H         -1.2087082853        1.1785079600        0.7032482022
