  79
       -132.90302765
 N         10.6193850921       -1.0513501883       -0.8130802590
 C          9.5858437514       -0.6461629805       -0.5259761100
 C          8.3157994361       -0.1357256914       -0.1705755122
 C          8.2451387815        1.0485489660        0.5997805126
 C          7.0330965173        1.5732828183        0.9468779407
 C          5.8468184575        0.9344580475        0.5365135472
 N          4.6500269579        1.4972604200        0.8170463527
 C          3.5766467813        0.8683287755        0.4322165429
 C          2.2333254900        1.4514984858        0.5863185538
 C          1.5022653586        1.7354940615       -0.5657606336
 C          0.1694800711        2.0728647029       -0.4850466870
 C         -0.4705169856        2.0987689307        0.7522164097
 N         -1.8683039018        2.2704453557        0.8228915331
 C         -2.6787727467        1.2052304879        1.2398905346
 C         -2.1578371797        0.0410397530        1.7881607532
 C         -2.9875109097       -0.9947816754        2.1905392697
 C         -4.3558990783       -0.8856270480        2.0542260946
 C         -4.8918439003        0.2617891522        1.4911764849
 C         -4.0672867446        1.2925362049        1.0788978877
 O         -4.6771960869        2.3746088790        0.4990786700
 C         -3.8694797505        3.3826184800        0.0395492188
 C         -4.4901712174        4.4530958509       -0.5773192804
 C         -3.7434250362        5.5311372717       -1.0290068090
 C         -2.3760770954        5.5384150905       -0.8404500321
 C         -1.7483011466        4.4645798452       -0.2277995727
 C         -2.4779471157        3.3610830870        0.1961596446
 C          0.2804844247        1.9096567480        1.9088672983
 C          1.6250266603        1.5958251341        1.8266708646
 C          3.6509824965       -0.4258398630       -0.2014270365
 C          2.3754348175       -1.1310149836       -0.4138556738
 C          1.8372775809       -1.3244702181       -1.6796157133
 C          0.5327579396       -1.7619775847       -1.8208684903
 C         -0.2465111383       -2.0262829896       -0.6982629243
 N         -1.6177451465       -2.3282487032       -0.8286768495
 C         -2.5077834285       -1.3428247901       -1.2778878337
 C         -2.0777237060       -0.1347256266       -1.8096973596
 C         -2.9848742560        0.8199756094       -2.2444311577
 C         -4.3412256780        0.5839996359       -2.1575774249
 C         -4.7883844400       -0.6092568685       -1.6123485124
 C         -3.8872209483       -1.5594931925       -1.1682558541
 O         -4.4149096992       -2.6948097695       -0.6099257761
 C         -3.5343746937       -3.6287422550       -0.1279012258
 C         -4.0748028254       -4.7586932781        0.4576101351
 C         -3.2477778590       -5.7670049539        0.9301995313
 C         -1.8796415675       -5.6447701131        0.7942486327
 C         -1.3326590021       -4.5109982119        0.2128792387
 C         -2.1461186082       -3.4764371029       -0.2318144714
 C          0.3343177545       -1.9475934296        0.5656945206
 C          1.6251586653       -1.4881078106        0.7049395543
 N          4.7934079197       -0.9490381114       -0.5400972430
 C          5.9191093043       -0.2731359221       -0.2110901788
 C          7.1714493098       -0.7930120044       -0.5720552876
 H          9.1643503268        1.5293527638        0.9001708359
 H          6.9514244172        2.4804255423        1.5251163216
 H          1.9826432595        1.6732254053       -1.5314335608
 H         -0.3934046841        2.2857601592       -1.3806149376
 H         -1.0897952819       -0.0615172575        1.8908887257
 H         -2.5540784834       -1.8898708797        2.6124715748
 H         -5.0055333677       -1.6871005051        2.3675602215
 H         -5.9546279735        0.3748087656        1.3510447826
 H         -5.5622623378        4.4263896997       -0.6886980510
 H         -4.2361262233        6.3603299877       -1.5115109944
 H         -1.7843232029        6.3803509072       -1.1652255772
 H         -0.6810302116        4.4870686476       -0.0707447079
 H         -0.2005427526        1.9893537382        2.8723159039
 H          2.1988156201        1.4259132217        2.7253212520
 H          2.4313945507       -1.0978945578       -2.5522362880
 H          0.1039636621       -1.8820427287       -2.8045809668
 H         -1.0208135524        0.0667650990       -1.8735306253
 H         -2.6214479568        1.7521172413       -2.6519494148
 H         -5.0508619957        1.3220905207       -2.4957252743
 H         -5.8405253742       -0.8208211379       -1.5112532245
 H         -5.1480835240       -4.8331004926        0.5287581069
 H         -3.6784673516       -6.6435740378        1.3876899920
 H         -1.2241579805       -6.4312456237        1.1354017516
 H         -0.2628126127       -4.4321511165        0.0963158359
 H         -0.2445329632       -2.2172131025        1.4354695202
 H          2.0552450281       -1.3861931852        1.6907880933
 H          7.2144888881       -1.7039203516       -1.1495123215
