  79
       -132.90302765
 N         10.6193850921       -1.0513501883       -0.8130802590
 C          9.5858437514       -0.6461629805       -0.5259761100
 C          8.3157994361       -0.1357256914       -0.1705755122
 C          8.2451387815        1.0485489660        0.5997805126
 C          7.0330965173        1.5732828183        0.9468779407
 C          5.8468184575        0.9344580475        0.5365135472
 N          4.6500269579        1.4972604200        0.8170463527
 C          3.5766467813        0.8683287755        0.4322165429
 C          2.2333254900        1.4514984858        0.5863185538
 C          1.5022653586        1.7354940615       -0.5657606336
 C          0.1694800711        2.0728647029       -0.4850466870
 C         -0.4705169856        2.0987689307        0.7522164097
 N         -1.8683039018        2.2704453557        0.8228915331
 C         -2.6787727467        1.2052304879        1.2398905346
 C         -2.1578371797        0.0410397530        1.7881607532
 C         -2.9875109097       -0.9947816754        2.1905392697
 C         -4.3558990783       -0.8856270480        2.0542260946
 C         -4.8918439003        0.2617891522        1.4911764849
 C         -4.0672867446        1.2925362049        1.0788978877
 O         -4.6771960869        2.3746088790        0.4990786700
 C         -3.8694797505        3.3826184800        0.0395492188
 C         -4.4901712174        4.4530958509       -0.5773192804
 C         -3.7434250362        5.5311372717       -1.0290068090
 C         -2.3760770954        5.5384150905       -0.8404500321
 C         -1.7483011466        4.4645798452       -0.2277995727
 C         -2.4779471157        3.3610830870        0.1961596446
 C          0.2804844247        1.9096567480        1.9088672983
 C          1.6250266603        1.5958251341        1.8266708646
 C          3.6509824965       -0.4258398630       -0.2014270365
 C          2.3754348175       -1.1310149836       -0.4138556738
 C          1.8372775809       -1.3244702181       -1.6796157133
 C          0.5327579396       -1.7619775847       -1.8208684903
 C         -0.2465111383       -2.0262829896       -0.6982629243
 N         -1.6177451465       -2.3282487032       -0.8286768495
 C         -2.5077834285       -1.3428247901       -1.2778878337
 C         -2.0777237060       -0.1347256266       -1.8096973596
 C         -2.9848742560        0.8199756094       -2.2444311577
 C         -4.3412256780        0.5839996359       -2.1575774249
 C         -4.7883844400       -0.6092568685       -1.6123485124
 C         -3.8872209483       -1.5594931925       -1.1682558541
 O         -4.4149096992       -2.6948097695       -0.6099257761
 C         -3.5343746937       -3.6287422550       -0.1279012258
 C         -4.0748028254       -4.7586932781        0.4576101351
 C         -3.2477778590       -5.7670049539        0.9301995313
 C         -1.8796415675       -5.6447701131        0.7942486327
 C         -1.3326590021       -4.5109982119        0.2128792387
 C         -2.1461186082       -3.4764371029       -0.2318144714
 C          0.3343177545       -1.9475934296        0.5656945206
 C          1.6251586653       -1.4881078106        0.7049395543
 N          4.7934079197       -0.9490381114       -0.5400972430
 C          5.9191093043       -0.2731359221       -0.2110901788
 C          7.1714493098       -0.7930120044       -0.5720552876
 H          9.1643503268        1.5293527638        0.9001708359
 H          6.9514244172        2.4804255423        1.5251163216
 H          1.9826432595        1.6732254053       -1.5314335608
 H         -0.3934046841        2.2857601592       -1.3806149376
 H         -1.0897952819       -0.0615172575        1.8908887257
 H         -2.5540784834       -1.8898708797        2.6124715748
 H         -5.0055333677       -1.6871005051        2.3675602215
 H         -5.9546279735        0.3748087656        1.3510447826
 H         -5.5622623378        4.4263896997       -0.6886980510
 H         -4.2361262233        6.3603299877       -1.5115109944
 H         -1.7843232029        6.3803509072       -1.1652255772
 H         -0.6810302116        4.4870686476       -0.0707447079
 H         -0.2005427526        1.9893537382        2.8723159039
 H          2.1988156201        1.4259132217        2.7253212520
 H          2.4313945507       -1.0978945578       -2.5522362880
 H          0.1039636621       -1.8820427287       -2.8045809668
 H         -1.0208135524        0.0667650990       -1.8735306253
 H         -2.6214479568        1.7521172413       -2.6519494148
 H         -5.0508619957        1.3220905207       -2.4957252743
 H         -5.8405253742       -0.8208211379       -1.5112532245
 H         -5.1480835240       -4.8331004926        0.5287581069
 H         -3.6784673516       -6.6435740378        1.3876899920
 H         -1.2241579805       -6.4312456237        1.1354017516
 H         -0.2628126127       -4.4321511165        0.0963158359
 H         -0.2445329632       -2.2172131025        1.4354695202
 H          2.0552450281       -1.3861931852        1.6907880933
 H          7.2144888881       -1.7039203516       -1.1495123215
  79
       -132.90192036
 N         10.6622797940       -1.0364228125       -0.6497615536
 C          9.6171218986       -0.6300427158       -0.4097295724
 C          8.3348613014       -0.1175667312       -0.1049370900
 C          8.2347065982        1.0756030197        0.6479330986
 C          7.0096875417        1.5946555640        0.9563038264
 C          5.8393210275        0.9408776920        0.5243494851
 N          4.6307417116        1.4885639129        0.7828298909
 C          3.5714666151        0.8453654957        0.3808637913
 C          2.2196010126        1.4057415197        0.5396175377
 C          1.4474915198        1.6218313441       -0.6008858864
 C          0.1084533780        1.9238981915       -0.4943741374
 C         -0.4969009393        1.9870053172        0.7588929529
 N         -1.8971961611        2.1162281807        0.8603179764
 C         -2.6587952757        1.0562421641        1.3723349089
 C         -2.0826978031       -0.0569007481        1.9694346433
 C         -2.8638369715       -1.0905612238        2.4643988495
 C         -4.2392019729       -1.0276735026        2.3780749581
 C         -4.8312110174        0.0676833415        1.7698390178
 C         -4.0547215937        1.0930055861        1.2610995835
 O         -4.7194362600        2.1204843297        0.6437738416
 C         -3.9612851110        3.1225950873        0.0965018962
 C         -4.6403349850        4.1370376873       -0.5525156615
 C         -3.9472127851        5.2078138240       -1.0964106661
 C         -2.5743261922        5.2653039266       -0.9660248102
 C         -1.8887742909        4.2485102782       -0.3191489269
 C         -2.5647405942        3.1501441343        0.1966639422
 C          0.2937912489        1.8765162787        1.8996114140
 C          1.6436490851        1.5952106206        1.7900018109
 C          3.6745093915       -0.4462189313       -0.2559522134
 C          2.4131826492       -1.1658424794       -0.4972144369
 C          1.9248122181       -1.4080335252       -1.7744624937
 C          0.6178803795       -1.8281916384       -1.9520879805
 C         -0.2133082743       -2.0188199162       -0.8523162663
 N         -1.5962313311       -2.2543646295       -1.0105808883
 C         -2.4201412408       -1.2127737414       -1.4703268699
 C         -1.9256386524       -0.1227946116       -2.1740693514
 C         -2.7636905399        0.8965168020       -2.6014188508
 C         -4.1166333353        0.8447579718       -2.3375040275
 C         -4.6283802673       -0.2351829028       -1.6365791898
 C         -3.7950620877       -1.2512245371       -1.2033110138
 O         -4.3872539944       -2.2695705347       -0.5034606080
 C         -3.5762006409       -3.2760744268       -0.0499681234
 C         -4.1783193464       -4.2999325535        0.6585603640
 C         -3.4250403328       -5.3682064069        1.1201947883
 C         -2.0716798571       -5.4162509035        0.8494473895
 C         -1.4638770112       -4.3906236158        0.1427407243
 C         -2.1986710112       -3.2951259396       -0.2931242314
 C          0.3265018773       -1.9233966977        0.4291877084
 C          1.6189085025       -1.4852144631        0.6034051873
 N          4.8299013084       -0.9569126630       -0.5696649767
 C          5.9408648408       -0.2701648658       -0.2139735527
 C          7.2063369197       -0.7850270719       -0.5338619706
 H          9.1416909012        1.5659965984        0.9693119201
 H          6.9060427681        2.5070881836        1.5223272993
 H          1.9010134872        1.5327420268       -1.5773020783
 H         -0.4898898926        2.0742981707       -1.3784625362
 H         -1.0093296058       -0.1179973702        2.0437715786
 H         -2.3867255796       -1.9460095260        2.9198040603
 H         -4.8509226981       -1.8260908610        2.7662749849
 H         -5.9017149958        0.1411053974        1.6667899763
 H         -5.7146878847        4.0714964130       -0.6163169569
 H         -4.4849648520        5.9928678050       -1.6039932038
 H         -2.0229622100        6.1042975169       -1.3617537301
 H         -0.8177415789        4.3135307603       -0.2061746267
 H         -0.1591682110        1.9895638341        2.8733813607
 H          2.2481474407        1.4807445805        2.6772838241
 H          2.5573377765       -1.2250879579       -2.6302431456
 H          0.2324876789       -1.9918628294       -2.9473569873
 H         -0.8700968905       -0.0602675658       -2.3812110507
 H         -2.3484521858        1.7326954304       -3.1446253673
 H         -4.7712717956        1.6369834344       -2.6639726708
 H         -5.6778977757       -0.3045339542       -1.4011162564
 H         -5.2399433336       -4.2407858417        0.8369274179
 H         -3.9017421644       -6.1595975495        1.6767084590
 H         -1.4773959040       -6.2528528726        1.1831600236
 H         -0.4077508979       -4.4379576363       -0.0749437425
 H         -0.2902987400       -2.1580812825        1.2823302004
 H          2.0150680491       -1.3636650469        1.6011008310
 H          7.2714287042       -1.7017017007       -1.0996889267
  79
       -132.90156043
 N         10.2686476795       -1.2470962758       -0.4823785369
 C          9.2352832372       -0.7816016199       -0.3058910044
 C          7.9652638963       -0.1999351696       -0.0874870101
 C          7.8932907298        1.1219032457        0.4134024487
 C          6.6817475456        1.7142412625        0.6252534095
 C          5.4956796383        1.0071742474        0.3432234154
 N          4.3009250830        1.6151325101        0.4682939858
 C          3.2147196728        0.9279761714        0.2155607269
 C          1.9349488692        1.6387304615        0.2566535929
 C          0.9309367597        1.3798778012       -0.6777636007
 C         -0.3003888822        1.9865218353       -0.5595132553
 C         -0.5530579394        2.8665810776        0.4910871961
 N         -1.8432671898        3.4103821583        0.6459727914
 C         -2.9179257214        2.5663967638        0.9388579821
 C         -2.7446981013        1.2146292748        1.2071018911
 C         -3.8318521265        0.4034018859        1.4942165978
 C         -5.1059049160        0.9317364938        1.5260810108
 C         -5.2912477890        2.2872379356        1.2966642666
 C         -4.2100422581        3.1020962606        1.0167607414
 O         -4.4626413871        4.4392770669        0.8383877302
 C         -3.3861736355        5.2653202524        0.6255579592
 C         -3.6473722829        6.6168994176        0.5012162111
 C         -2.6158233134        7.5090186489        0.2466271069
 C         -1.3272931800        7.0367374215        0.1023781582
 C         -1.0583259277        5.6823384214        0.2311148116
 C         -2.0757357768        4.7808047618        0.5148596992
 C          0.4672751116        3.1803015479        1.3847318560
 C          1.7016599383        2.5756829400        1.2616586483
 C          3.2881384114       -0.4769811870       -0.0891005072
 C          2.0840680875       -1.3075233682       -0.1763523347
 C          1.9666783754       -2.2443189283       -1.2009207199
 C          0.8018430059       -2.9671651101       -1.3604955478
 C         -0.2616586416       -2.7764253552       -0.4825470878
 N         -1.4825870880       -3.4536791570       -0.6680992230
 C         -2.6428432455       -2.7265388739       -0.9480257304
 C         -2.6183718452       -1.3585054124       -1.1871683675
 C         -3.7867606309       -0.6653782328       -1.4644853249
 C         -4.9949077077       -1.3294154661       -1.5156147629
 C         -5.0311488561       -2.7015447979       -1.3150079555
 C         -3.8682022477       -3.3985602338       -1.0446504225
 O         -3.9738738805       -4.7585844097       -0.8940604555
 C         -2.8140266735       -5.4662557760       -0.6933538362
 C         -2.9272448286       -6.8405934561       -0.5981305459
 C         -1.8055352011       -7.6208565177       -0.3585245767
 C         -0.5761795136       -7.0144044896       -0.1994104837
 C         -0.4559416394       -5.6363443983       -0.2976308634
 C         -1.5645534233       -4.8442183391       -0.5663851313
 C         -0.1213787948       -1.8911367525        0.5846286384
 C          1.0389851209       -1.1640246540        0.7372753191
 N          4.4430170099       -1.0555558630       -0.2992611556
 C          5.5688496654       -0.3339613714       -0.1263329551
 C          6.8221569522       -0.9235666965       -0.3553895242
 H          8.8126163991        1.6506876237        0.6177306812
 H          6.6006357582        2.7243997155        0.9950046747
 H          1.1217100562        0.7130212207       -1.5054096510
 H         -1.0830092314        1.7799509987       -1.2744052893
 H         -1.7515497072        0.7937770015        1.1915538531
 H         -3.6733997329       -0.6454611807        1.6909492035
 H         -5.9550781318        0.3022642254        1.7383779912
 H         -6.2712665330        2.7350874898        1.3360825062
 H         -4.6677923832        6.9510168345        0.5990332239
 H         -2.8294916384        8.5617383464        0.1518054709
 H         -0.5178107705        7.7159261399       -0.1162068982
 H         -0.0500047771        5.3227174037        0.0984111363
 H          0.2775972390        3.8797037028        2.1851867341
 H          2.4923716067        2.7936811025        1.9628603331
 H          2.7899657950       -2.3716504926       -1.8868503067
 H          0.6995449902       -3.6662317132       -2.1770957102
 H         -1.6775444722       -0.8317488216       -1.1561995261
 H         -3.7437313308        0.3986032581       -1.6378014065
 H         -5.9071898790       -0.7925522254       -1.7203866990
 H         -5.9557708752       -3.2533998064       -1.3697110686
 H         -3.9054430526       -7.2809500511       -0.7065813967
 H         -1.9035514931       -8.6923906954       -0.2871816802
 H          0.3023767557       -7.6060919957        0.0064954933
 H          0.5073887958       -5.1732794686       -0.1526221905
 H         -0.9350258160       -1.7762076314        1.2852796319
 H          1.1438578763       -0.4925367335        1.5765921339
 H          6.8672080197       -1.9376432935       -0.7221680273
  79
       -132.90136347
 N         10.3266797793       -1.2023982691       -0.5671886629
 C          9.2909613484       -0.7465166092       -0.3789146367
 C          8.0204283765       -0.1761268707       -0.1348087677
 C          7.9480684403        1.1438463241        0.3708059874
 C          6.7363825327        1.7281914818        0.6029092053
 C          5.5506013260        1.0145309020        0.3372895334
 N          4.3542677684        1.6173997957        0.4750365422
 C          3.2696684828        0.9249013999        0.2339716512
 C          1.9827644382        1.6239140572        0.2778835488
 C          0.9927502016        1.3654878027       -0.6715957126
 C         -0.2517152120        1.9431776479       -0.5506892149
 C         -0.5336476686        2.7895976955        0.5198000348
 N         -1.8439938853        3.2839186911        0.6798961798
 C         -2.8854060674        2.3885000724        0.9379060243
 C         -2.6496821144        1.0547990941        1.2445916990
 C         -3.7023629129        0.1894902369        1.4982552742
 C         -5.0035695991        0.6452662073        1.4584815251
 C         -5.2531765510        1.9828668355        1.1892053175
 C         -4.2068616450        2.8518789597        0.9416901918
 O         -4.5219439195        4.1687948066        0.7171096287
 C         -3.4810287768        5.0505337544        0.5537549186
 C         -3.8076858532        6.3845248757        0.3988784244
 C         -2.8131418745        7.3299581465        0.1938384268
 C         -1.4944259672        6.9288128679        0.1313687741
 C         -1.1598421279        5.5922946903        0.2897609168
 C         -2.1417912144        4.6381662288        0.5205761205
 C          0.4730802140        3.1092198556        1.4260347398
 C          1.7229632791        2.5361303174        1.2983700204
 C          3.3462124821       -0.4818251218       -0.0659415251
 C          2.1393481805       -1.3103200568       -0.1386057074
 C          2.0017039725       -2.2450835929       -1.1624943560
 C          0.8195403656       -2.9403869426       -1.3234765304
 C         -0.2404871725       -2.7192625151       -0.4494576059
 N         -1.4920356162       -3.3372392132       -0.6503770071
 C         -2.5971938334       -2.5505000979       -0.9836706962
 C         -2.4754046292       -1.2014463633       -1.2892443858
 C         -3.5903234354       -0.4463144698       -1.6184466858
 C         -4.8398665757       -1.0290532502       -1.6561531113
 C         -4.9727738921       -2.3833819994       -1.3866181624
 C         -3.8639125966       -3.1426512926       -1.0629373292
 O         -4.0618287571       -4.4827014636       -0.8400532490
 C         -2.9515949544       -5.2562545475       -0.6011474527
 C         -3.1537410713       -6.6147562543       -0.4480160225
 C         -2.0848838781       -7.4549130800       -0.1703775823
 C         -0.8182219385       -6.9245068226       -0.0355786333
 C         -0.6081505538       -5.5625160572       -0.1921769550
 C         -1.6640911176       -4.7128848716       -0.4932028755
 C         -0.0751201553       -1.8502000955        0.6268607385
 C          1.1027236977       -1.1528316607        0.7825999959
 N          4.5007804377       -1.0551833065       -0.2884275020
 C          5.6248098457       -0.3263504580       -0.1329798576
 C          6.8779778227       -0.9074292063       -0.3832585073
 H          8.8670994386        1.6780207502        0.5613123829
 H          6.6547803423        2.7377647928        0.9742173378
 H          1.2055899701        0.7208364279       -1.5114812975
 H         -1.0244132905        1.7366801455       -1.2759139545
 H         -1.6339209310        0.6936804129        1.2824172557
 H         -3.4971589508       -0.8451363966        1.7255021423
 H         -5.8255057873       -0.0275224562        1.6431561065
 H         -6.2579461510        2.3737172364        1.1688079885
 H         -4.8489227890        6.6625249808        0.4325652091
 H         -3.0782663893        8.3682629919        0.0736693172
 H         -0.7118514984        7.6505594796       -0.0446212766
 H         -0.1272737270        5.2875668520        0.2222963622
 H          0.2608965431        3.7826890903        2.2429712123
 H          2.5032330010        2.7570884566        2.0104813025
 H          2.8206091391       -2.3880167673       -1.8506464270
 H          0.7011309634       -3.6377829924       -2.1395396793
 H         -1.5001227216       -0.7411742794       -1.2666715058
 H         -3.4743189224        0.6025615844       -1.8437259086
 H         -5.7106022219       -0.4429284168       -1.9025604220
 H         -5.9329050943       -2.8722935878       -1.4268143399
 H         -4.1581283045       -6.9955755263       -0.5409729052
 H         -2.2532318781       -8.5132975674       -0.0508938502
 H          0.0194107746       -7.5634829661        0.1975300135
 H          0.3831022491       -5.1553313217       -0.0685363673
 H         -0.8861342410       -1.7196685664        1.3275238264
 H          1.2235827144       -0.4850286005        1.6228640022
 H          6.9238495896       -1.9210864142       -0.7510701829
  79
       -132.90066734
 N         10.3294544272       -1.2992298943       -0.5678094493
 C          9.3052303787       -0.8277919847       -0.3589706204
 C          8.0450779220       -0.2413151034       -0.0983440208
 C          7.9955355424        1.0547411094        0.4678409672
 C          6.7936829626        1.6509659711        0.7212630356
 C          5.5962811648        0.9730930294        0.4184387317
 N          4.4099152508        1.5909550283        0.5848771393
 C          3.3167240680        0.9272783978        0.3142677083
 C          2.0319462553        1.6332691189        0.3851482762
 C          1.0811233484        1.4667667995       -0.6212322392
 C         -0.1684000789        2.0362635327       -0.4959013482
 C         -0.4865206914        2.7717273110        0.6407724888
 N         -1.8091953971        3.2543731081        0.8148507610
 C         -2.7928430186        2.3726730354        1.2624371914
 C         -2.4779430995        1.1167636894        1.7624543727
 C         -3.4770128546        0.2618975885        2.2033117719
 C         -4.7989130878        0.6515152238        2.1521085830
 C         -5.1268617603        1.9093562860        1.6651871270
 C         -4.1364865623        2.7676194900        1.2276824545
 O         -4.5271512012        4.0018124082        0.7660891138
 C         -3.5496085927        4.8317417608        0.2692971321
 C         -3.9514410666        6.0477163017       -0.2486379263
 C         -3.0147165653        6.9296462161       -0.7711328638
 C         -1.6785791861        6.5854227260       -0.7765161132
 C         -1.2684289226        5.3651814315       -0.2594430765
 C         -2.1938840834        4.4780315095        0.2716508074
 C          0.4788361245        3.0002673093        1.6127971056
 C          1.7360215374        2.4414543546        1.4792376054
 C          3.3673044943       -0.4628917509       -0.0576731959
 C          2.1395831356       -1.2548656186       -0.1651230987
 C          1.9497933638       -2.1075795966       -1.2501157559
 C          0.7485525044       -2.7654453930       -1.4223923043
 C         -0.2773100789       -2.5994148558       -0.4950285784
 N         -1.5347368719       -3.2007722132       -0.6874384241
 C         -2.6730979487       -2.3983315954       -0.8191040658
 C         -2.5958720529       -1.0149454479       -0.9188765784
 C         -3.7419939305       -0.2483059823       -1.0582949210
 C         -4.9823783264       -0.8501028389       -1.1038449513
 C         -5.0741082186       -2.2323617500       -1.0410567730
 C         -3.9330752612       -3.0027110175       -0.9129859766
 O         -4.0970792186       -4.3650896681       -0.8996197257
 C         -2.9642688769       -5.1392063575       -0.8481443000
 C         -3.1404974848       -6.5094479213       -0.8982115048
 C         -2.0483868109       -7.3600697676       -0.8100582165
 C         -0.7843290835       -6.8293479188       -0.6522420624
 C         -0.6011180280       -5.4555512521       -0.6058515981
 C         -1.6804355777       -4.5898529651       -0.7273813938
 C         -0.0619037101       -1.8069061662        0.6312685815
 C          1.1312831063       -1.1385305904        0.7926805369
 N          4.5107619998       -1.0448880874       -0.3116474628
 C          5.6467504924       -0.3445901603       -0.1161319977
 C          6.8902984914       -0.9369498955       -0.3885791516
 H          8.9235515760        1.5617812018        0.6878076962
 H          6.7291959424        2.6428404616        1.1406859876
 H          1.3232775066        0.8911632021       -1.5024172714
 H         -0.9128017715        1.9017717705       -1.2667614199
 H         -1.4440179415        0.8098715148        1.8024160302
 H         -3.2123611512       -0.7119639748        2.5859846024
 H         -5.5795723952       -0.0121041092        2.4878494214
 H         -6.1511795276        2.2426528356        1.6176681171
 H         -5.0026367925        6.2877483665       -0.2376138692
 H         -3.3391678450        7.8766264933       -1.1724038919
 H         -0.9421239904        7.2610039540       -1.1835154017
 H         -0.2230373653        5.0961276095       -0.2666785165
 H          0.2310049209        3.5986037905        2.4765513830
 H          2.4897734484        2.5956249366        2.2360527869
 H          2.7431325634       -2.2159531828       -1.9736986481
 H          0.5879498489       -3.3903955317       -2.2881674891
 H         -1.6309704965       -0.5337408880       -0.8883220945
 H         -3.6568647180        0.8246953522       -1.1286682052
 H         -5.8766467514       -0.2556640875       -1.1994829661
 H         -6.0259250260       -2.7358514520       -1.0964578045
 H         -4.1438155479       -6.8913929639       -0.9979000942
 H         -2.1955632456       -8.4274411982       -0.8526272684
 H          0.0730956830       -7.4780108403       -0.5606704890
 H          0.3900419178       -5.0556029949       -0.4615852581
 H         -0.8462282538       -1.7132399777        1.3671676783
 H          1.2921190644       -0.5345720906        1.6735592892
 H          6.9185441720       -1.9322530864       -0.8051014358
  79
       -132.90057171
 N         10.3604658748       -1.3206268441       -0.5362844501
 C          9.3347453867       -0.8519851450       -0.3289025866
 C          8.0756155760       -0.2636987051       -0.0672519760
 C          8.0301690225        1.0086183332        0.5510656886
 C          6.8304796037        1.6073536034        0.8087799459
 C          5.6314100933        0.9555989627        0.4592303432
 N          4.4487375165        1.5794222593        0.6331912268
 C          3.3546383090        0.9363313502        0.3232879838
 C          2.0681231928        1.6397232350        0.4007801589
 C          1.1596971899        1.5487878435       -0.6529080535
 C         -0.1000203520        2.0967549265       -0.5330315674
 C         -0.4738934571        2.7240400431        0.6505545598
 N         -1.8094551896        3.1720206788        0.8177783470
 C         -2.7612217570        2.2822820905        1.3172352752
 C         -2.4067702233        1.0497179847        1.8473345588
 C         -3.3762437798        0.1828378010        2.3287267063
 C         -4.7085904099        0.5358060389        2.2860686957
 C         -5.0767835066        1.7670938690        1.7621658935
 C         -4.1161207437        2.6365609479        1.2827988085
 O         -4.5486294058        3.8378176887        0.7741499991
 C         -3.6049597010        4.6630799991        0.2093829391
 C         -4.0500648934        5.8363128584       -0.3683602400
 C         -3.1472595017        6.7156640605       -0.9511694230
 C         -1.8010747023        6.4131629408       -0.9537121559
 C         -1.3478024439        5.2354079551       -0.3777646914
 C         -2.2398511885        4.3481359544        0.2077509701
 C          0.4485877271        2.8757890741        1.6776628559
 C          1.7196882091        2.3485567382        1.5465194212
 C          3.3970742855       -0.4403493098       -0.0978529646
 C          2.1598440978       -1.2143615697       -0.2280005570
 C          1.9489682432       -2.0348054932       -1.3331359452
 C          0.7379161856       -2.6751215830       -1.5095469376
 C         -0.2760335698       -2.5199716350       -0.5682857427
 N         -1.5448529182       -3.0999525267       -0.7577134194
 C         -2.6709085131       -2.2752971917       -0.8448761353
 C         -2.5666627558       -0.8954682496       -0.9664025751
 C         -3.7006329264       -0.1053607736       -1.0681320186
 C         -4.9548193490       -0.6792842755       -1.0482843637
 C         -5.0746883926       -2.0579874094       -0.9589110419
 C         -3.9464613884       -2.8525117760       -0.8721563165
 O         -4.1383401067       -4.2107342496       -0.8302408073
 C         -3.0209008102       -5.0086619328       -0.8022411476
 C         -3.2279403067       -6.3754856387       -0.8013431607
 C         -2.1508607328       -7.2474217218       -0.7385026935
 C         -0.8695046036       -6.7410933125       -0.6604519297
 C         -0.6554639815       -5.3708899789       -0.6633821844
 C         -1.7214826925       -4.4855513736       -0.7546471718
 C         -0.0407613932       -1.7591023508        0.5753076430
 C          1.1622210990       -1.1114879870        0.7427406165
 N          4.5373440260       -1.0229894726       -0.3621775734
 C          5.6768697205       -0.3401845094       -0.1271536630
 C          6.9186973152       -0.9338335048       -0.4048371042
 H          8.9595170259        1.4948384281        0.8086342066
 H          6.7689421383        2.5811925381        1.2687056806
 H          1.4422542565        1.0430881666       -1.5646121021
 H         -0.8105607165        2.0230425100       -1.3430740162
 H         -1.3650860955        0.7695987862        1.8774225024
 H         -3.0800972732       -0.7718927749        2.7360660077
 H         -5.4665226049       -0.1370649473        2.6539292499
 H         -6.1105442373        2.0697587160        1.7151608827
 H         -5.1073639608        6.0469305857       -0.3527763806
 H         -3.5050167634        7.6300297073       -1.3972578442
 H         -1.0898852733        7.0899198413       -1.4016184859
 H         -0.2939919270        5.0015579408       -0.3773380698
 H          0.1564804920        3.3900910221        2.5807901699
 H          2.4411071675        2.4477262857        2.3430919948
 H          2.7332964760       -2.1342482278       -2.0677593941
 H          0.5619445785       -3.2774273998       -2.3882835184
 H         -1.5901604393       -0.4368817023       -0.9836532863
 H         -3.5948825556        0.9638621313       -1.1632382902
 H         -5.8391173804       -0.0661273847       -1.1133377612
 H         -6.0392789094       -2.5396656834       -0.9619027169
 H         -4.2426240116       -6.7378463833       -0.8416969428
 H         -2.3225352975       -8.3119201549       -0.7379575983
 H         -0.0225647131       -7.4059752174       -0.5910176102
 H          0.3496434193       -4.9883381358       -0.5814649949
 H         -0.8180686065       -1.6745988571        1.3195971080
 H          1.3398414921       -0.5355560012        1.6387493598
 H          6.9434423707       -1.9110870072       -0.8621364751
  79
       -132.90048035
 N         10.3911089254       -1.2477693223       -0.7025124845
 C          9.3695841686       -0.7945914550       -0.4455055296
 C          8.1129017945       -0.2255090486       -0.1342125498
 C          8.0710576713        1.0435222950        0.4907773143
 C          6.8726105946        1.6257391517        0.7892567352
 C          5.6714368231        0.9617475621        0.4718276941
 N          4.4876975793        1.5757315399        0.6743479931
 C          3.3936061255        0.9263139598        0.3809359848
 C          2.1004248364        1.6186159849        0.4674109472
 C          1.2248427500        1.5764422170       -0.6163125063
 C         -0.0440723762        2.1043669051       -0.5060586481
 C         -0.4647197632        2.6528265977        0.7010489536
 N         -1.8125289396        3.0652863067        0.8561027580
 C         -2.7418685764        2.1478033572        1.3531943892
 C         -2.3529688214        0.9425857684        1.9201318630
 C         -3.2989273586        0.0420010501        2.3858298115
 C         -4.6436115334        0.3330585609        2.2905299349
 C         -5.0466998890        1.5368062579        1.7309716189
 C         -4.1091228943        2.4395194494        1.2672447390
 O         -4.5783392751        3.6078486299        0.7175399103
 C         -3.6568113316        4.4492753433        0.1413491222
 C         -4.1374020046        5.5800629739       -0.4909352247
 C         -3.2591518499        6.4755631329       -1.0858124494
 C         -1.9012236816        6.2323791821       -1.0445834278
 C         -1.4126919577        5.0982226354       -0.4131671969
 C         -2.2801331231        4.1932373406        0.1829611963
 C          0.4251715944        2.7558979022        1.7629076890
 C          1.7088024386        2.2573070134        1.6398040855
 C          3.4368031046       -0.4485427252       -0.0476590959
 C          2.1966050203       -1.2189614842       -0.1738589408
 C          1.9744531713       -2.0291335781       -1.2844306704
 C          0.7516636310       -2.6451948263       -1.4697105881
 C         -0.2633354568       -2.4704220191       -0.5339009760
 N         -1.5546854222       -2.9954096003       -0.7408070628
 C         -2.6321495735       -2.1147600593       -0.8726455917
 C         -2.4477908805       -0.7489966634       -1.0438508419
 C         -3.5340341777        0.0978748849       -1.1970294020
 C         -4.8184899600       -0.4043185983       -1.1740028243
 C         -5.0173867665       -1.7693802968       -1.0302451856
 C         -3.9371332183       -2.6216659425       -0.8961659193
 O         -4.2027250401       -3.9650940959       -0.8046550746
 C         -3.1297430329       -4.8216445859       -0.7530900261
 C         -3.4081852955       -6.1750632459       -0.7254042722
 C         -2.3781372703       -7.1005601397       -0.6379807291
 C         -1.0719706279       -6.6615590843       -0.5651564867
 C         -0.7857871599       -5.3049457570       -0.5963661556
 C         -1.8042468675       -4.3680202761       -0.7087500846
 C         -0.0142514991       -1.7317562592        0.6206202243
 C          1.2017152950       -1.1121805012        0.7992044059
 N          4.5756415699       -1.0236265477       -0.3324783737
 C          5.7144435029       -0.3318797023       -0.1193432931
 C          6.9543350773       -0.9102950568       -0.4350134108
 H          9.0018253598        1.5412940397        0.7195376408
 H          6.8132518749        2.5973800383        1.2541076348
 H          1.5400464094        1.1205885307       -1.5436951365
 H         -0.7263927395        2.0721916038       -1.3426273277
 H         -1.3018929131        0.7093293299        1.9904309058
 H         -2.9748536400       -0.8903169241        2.8232745761
 H         -5.3833810128       -0.3671487087        2.6440851359
 H         -6.0905190342        1.7914964890        1.6414156502
 H         -5.2029268738        5.7447808478       -0.5067999926
 H         -3.6442080182        7.3567746982       -1.5740135920
 H         -1.2084137567        6.9235385981       -1.4994370139
 H         -0.3496896729        4.9141897584       -0.3752589389
 H          0.0977741261        3.2097293921        2.6862199296
 H          2.4040832691        2.3215273285        2.4630318623
 H          2.7587910884       -2.1366442789       -2.0179407255
 H          0.5667533668       -3.2379349496       -2.3531849038
 H         -1.4460060703       -0.3485323538       -1.0608492324
 H         -3.3672889944        1.1542457757       -1.3403074068
 H         -5.6660588542        0.2535375953       -1.2794495569
 H         -6.0079139737       -2.1950851670       -1.0282750029
 H         -4.4400863598       -6.4851876254       -0.7642552020
 H         -2.6057866686       -8.1543532694       -0.6171540042
 H         -0.2618358326       -7.3691745619       -0.4794271598
 H          0.2373701602       -4.9718285641       -0.5207110610
 H         -0.7935887861       -1.6387026264        1.3615078472
 H          1.3902231061       -0.5540027028        1.7040276975
 H          6.9768947889       -1.8855502040       -0.8966672109
