  79
  -132.437811756600       0.490280897492533      !
 N         10.3974949149       -0.3727872791       -0.4011346169
 C          9.3246294823        0.0122593253       -0.2719574480
 C          8.0074242833        0.4972457168       -0.1018256593
 C          7.8171881198        1.8582835670        0.2366970850
 C          6.5575696601        2.3606387075        0.3932683302
 C          5.4399434025        1.5206610859        0.2163744443
 N          4.1951655315        2.0310398490        0.2770431553
 C          3.1762590851        1.2236847882        0.1220290279
 C          1.8341884518        1.8098077722        0.0775854375
 C          0.8810371790        1.3525813501       -0.8339351797
 C         -0.4093561768        1.8318655595       -0.7869273303
 C         -0.7748549109        2.7762190892        0.1703955656
 N         -2.1242675815        3.1722473010        0.2665117961
 C         -3.0888223622        2.2293664402        0.6318782874
 C         -2.7442884671        0.9686962574        1.1013325129
 C         -3.7225770033        0.0540833821        1.4586507456
 C         -5.0572393422        0.3881988976        1.3612044014
 C         -5.4163798990        1.6561358216        0.9283732979
 C         -4.4448213221        2.5746204064        0.5766906413
 O         -4.8679682962        3.8219885952        0.1906856456
 C         -3.9038686653        4.7629461251       -0.0790614515
 C         -4.3408249262        6.0347784700       -0.3980216345
 C         -3.4278429516        7.0296043858       -0.7170647459
 C         -2.0791653419        6.7384258429       -0.7278070660
 C         -1.6341385143        5.4652074389       -0.4050358253
 C         -2.5341388430        4.4660358251       -0.0593245553
 C          0.1902617179        3.2900631144        1.0314617106
 C          1.4857420225        2.8149605110        0.9771858177
 C          3.3755959475       -0.1974614102       -0.0016427230
 C          2.2444333311       -1.1290461524        0.0271042174
 C          2.1988555529       -2.1910011851       -0.8735904788
 C          1.0820333253       -2.9996466086       -0.9489130710
 C         -0.0032359838       -2.7644285965       -0.1102674438
 N         -1.1952836674       -3.5074864700       -0.2348653116
 C         -2.3592598983       -2.8654426330       -0.6642332762
 C         -2.3489161713       -1.5587902908       -1.1340274149
 C         -3.5199800798       -0.9483301314       -1.5554416902
 C         -4.7149587704       -1.6362985022       -1.5224300297
 C         -4.7355041787       -2.9535532806       -1.0877605699
 C         -3.5700584647       -3.5693028790       -0.6713218183
 O         -3.6560331353       -4.8837556820       -0.2847926921
 C         -2.4870013143       -5.5239386374        0.0492878891
 C         -2.5747956867       -6.8655779468        0.3688740065
 C         -1.4417883108       -7.5703957309        0.7495687295
 C         -0.2264587150       -6.9207555329        0.8193943005
 C         -0.1310236280       -5.5754133115        0.4959467508
 C         -1.2516896826       -4.8629974495        0.0908893915
 C          0.0749229613       -1.7586038855        0.8506096286
 C          1.1873280628       -0.9489322375        0.9204688072
 N          4.5772595125       -0.6926701227       -0.1501007633
 C          5.6333787052        0.1434582037       -0.0844877020
 C          6.9342642742       -0.3543451817       -0.2594460362
 H          8.6851876778        2.4886837463        0.3608959632
 H          6.3860900417        3.3974722532        0.6368619588
 H          1.1578211352        0.6301564212       -1.5874448489
 H         -1.1530631164        1.4722085254       -1.4820541300
 H         -1.7020386084        0.7034433207        1.1847853020
 H         -3.4329189630       -0.9232851062        1.8122764429
 H         -5.8211730167       -0.3247654804        1.6265636311
 H         -6.4504114066        1.9538710306        0.8585547991
 H         -5.4022424713        6.2244649235       -0.4002707719
 H         -3.7787826482        8.0186421783       -0.9649642205
 H         -1.3587108464        7.4974865216       -0.9906486053
 H         -0.5786862268        5.2441967047       -0.4330134658
 H         -0.0880449255        4.0382131180        1.7586376898
 H          2.2359195474        3.1879509210        1.6575222428
 H          3.0350444364       -2.3467299576       -1.5377633009
 H          1.0329881305       -3.7997025226       -1.6726852748
 H         -1.4166031486       -1.0172904597       -1.1672702497
 H         -3.4908477482        0.0709208303       -1.9084679453
 H         -5.6293619682       -1.1618035849       -1.8404879081
 H         -5.6500801198       -3.5242371232       -1.0684473840
 H         -3.5420228167       -7.3396785713        0.3224165953
 H         -1.5210090253       -8.6165521603        0.9987191621
 H          0.6596116383       -7.4519794684        1.1307448661
 H          0.8205136309       -5.0725973869        0.5695776814
 H         -0.7524985803       -1.6129205555        1.5287401837
 H          1.2410412247       -0.1749473774        1.6719165845
 H          7.0704507121       -1.3978511434       -0.4991106874
  79
  -132.436822804100       0.172168569661821      !
 N         10.4116730115       -0.4490356777       -0.3216624242
 C          9.3469920814       -0.0468929571       -0.1815267396
 C          8.0364409152        0.4547102568       -0.0062685660
 C          7.8650880586        1.8018382334        0.3920604538
 C          6.6119051211        2.3172901389        0.5593874164
 C          5.4830850018        1.5046004602        0.3351420733
 N          4.2450772218        2.0319564157        0.4135748967
 C          3.2182453369        1.2464494631        0.2202921923
 C          1.8763935729        1.8403687299        0.1921012530
 C          0.9622193420        1.4670356680       -0.7925290659
 C         -0.3337781519        1.9359307297       -0.7492731569
 C         -0.7349919545        2.7765452432        0.2834561538
 N         -2.0972861426        3.1592629790        0.3854378550
 C         -3.0095359472        2.2573735604        0.9328746502
 C         -2.5970491437        1.1060449632        1.5892164241
 C         -3.5268456106        0.2284854021        2.1264867651
 C         -4.8761928387        0.4912582305        2.0166851552
 C         -5.3020864213        1.6449835343        1.3729930289
 C         -4.3813051477        2.5255558820        0.8385556749
 O         -4.8681053889        3.6535656459        0.2224883657
 C         -3.9565712612        4.4976222901       -0.3672984348
 C         -4.4518852852        5.5996267290       -1.0370524047
 C         -3.5850094453        6.4882948267       -1.6591853609
 C         -2.2243386920        6.2645837027       -1.6111195654
 C         -1.7203560619        5.1589842927       -0.9416212203
 C         -2.5757163328        4.2672167862       -0.3102160622
 C          0.1889577332        3.2081852401        1.2263135429
 C          1.4918205215        2.7494957714        1.1736092075
 C          3.3951341832       -0.1693990931        0.0265019446
 C          2.2423130174       -1.0731718412        0.0101923559
 C          2.1467196886       -2.0677658744       -0.9603719009
 C          1.0099369544       -2.8447519544       -1.0576542946
 C         -0.0433995522       -2.6550637574       -0.1663270533
 N         -1.2406397600       -3.3836367251       -0.2911135722
 C         -2.4411922823       -2.7067925584       -0.5312559103
 C         -2.4814539338       -1.3452187329       -0.8036000740
 C         -3.6865130576       -0.7054042576       -1.0469903946
 C         -4.8694581014       -1.4146179353       -1.0259026252
 C         -4.8430564375       -2.7809578953       -0.7904997969
 C         -3.6425371860       -3.4262990409       -0.5579386969
 O         -3.6889247396       -4.7854866125       -0.3746114418
 C         -2.4948539611       -5.4448162662       -0.2176241105
 C         -2.5515677651       -6.8207509325       -0.0963288968
 C         -1.3921347740       -7.5546911943        0.1063557915
 C         -0.1815709995       -6.8996580425        0.2057563710
 C         -0.1181396787       -5.5200556352        0.0804195738
 C         -1.2655085423       -4.7742519774       -0.1571745831
 C          0.0821266926       -1.7125791010        0.8529771474
 C          1.2101834582       -0.9272659650        0.9380989463
 N          4.5889345843       -0.6759779926       -0.1436043510
 C          5.6566368311        0.1401185465       -0.0290980614
 C          6.9513730177       -0.3702277376       -0.2154686890
 H          8.7418013642        2.4117432724        0.5535485308
 H          6.4545563767        3.3441904378        0.8502591099
 H          1.2692761301        0.8095882192       -1.5924816767
 H         -1.0494469899        1.6416819174       -1.5027205107
 H         -1.5414694780        0.8983788373        1.6752822284
 H         -3.1865086583       -0.6631162527        2.6305726823
 H         -5.6029364308       -0.1912332945        2.4272829555
 H         -6.3502280610        1.8786465297        1.2761826865
 H         -5.5198593731        5.7460519528       -1.0642622825
 H         -3.9822565486        7.3457679150       -2.1787942120
 H         -1.5413376816        6.9461422144       -2.0942471744
 H         -0.6557365492        4.9838392794       -0.9070475868
 H         -0.1253874378        3.8854304041        2.0060727386
 H          2.2153700271        3.0622635038        1.9107199109
 H          2.9597013226       -2.1954681816       -1.6585531848
 H          0.9197607629       -3.5843668547       -1.8391660432
 H         -1.5622684948       -0.7812145458       -0.8264872795
 H         -3.6927389454        0.3537650253       -1.2510808509
 H         -5.8096345163       -0.9174537301       -1.2023002923
 H         -5.7468303578       -3.3689356082       -0.7893598738
 H         -3.5162815920       -7.2986375736       -0.1547973209
 H         -1.4461087676       -8.6278101424        0.1972256400
 H          0.7266458061       -7.4541507686        0.3846591931
 H          0.8320888116       -5.0198875706        0.1807547460
 H         -0.7208377738       -1.5970873468        1.5652941736
 H          1.3021186736       -0.2064951952        1.7372352706
 H          7.0728623949       -1.4033332241       -0.5033062447
  79
  -132.436647895000       0.143077457678365      !
 N         10.3427930837       -0.4103340595       -0.3021928625
 C          9.2714354104       -0.0170239908       -0.1874099365
 C          7.9538894489        0.4760030473       -0.0460512815
 C          7.7634369782        1.8388242822        0.2852692896
 C          6.5033267305        2.3466091526        0.4189058565
 C          5.3853468722        1.5106247806        0.2252749491
 N          4.1417380467        2.0244832746        0.2708916294
 C          3.1211859254        1.2204116889        0.1040312691
 C          1.7852033828        1.8181156040        0.0532940066
 C          0.8187907852        1.3595667189       -0.8433442252
 C         -0.4610553402        1.8681336682       -0.8044017259
 C         -0.8009623389        2.8472078048        0.1272550232
 N         -2.1345969603        3.2931584754        0.2102957879
 C         -3.1372462402        2.4030196707        0.6044167980
 C         -2.8531449255        1.1151206000        1.0401235501
 C         -3.8709551157        0.2555698845        1.4243937546
 C         -5.1856146190        0.6722969330        1.3873496364
 C         -5.4825972667        1.9676821580        0.9896731253
 C         -4.4711138961        2.8312090187        0.6120910479
 O         -4.8341950049        4.1090627255        0.2672174879
 C         -3.8292352615        4.9915933051       -0.0452282931
 C         -4.2027948825        6.2896707443       -0.3383153367
 C         -3.2476745420        7.2284544378       -0.7005527217
 C         -1.9219284622        6.8543805460       -0.7819976531
 C         -1.5404451138        5.5547308183       -0.4841819376
 C         -2.4810488342        4.6114879368       -0.0918116922
 C          0.1775642499        3.3563164998        0.9766047146
 C          1.4603473352        2.8494138105        0.9326297737
 C          3.3176512350       -0.2000044054       -0.0221965364
 C          2.1897576389       -1.1353270560       -0.0071593771
 C          2.1654684225       -2.1990442474       -0.9066161089
 C          1.0684276710       -3.0335480826       -0.9767381813
 C         -0.0185118425       -2.8270432051       -0.1316765644
 N         -1.1749840362       -3.6245361587       -0.2333900472
 C         -2.3892074326       -3.0403507058       -0.6044359906
 C         -2.4780942922       -1.7157578734       -1.0129167817
 C         -3.6975616631       -1.1655676613       -1.3771315512
 C         -4.8441318873       -1.9321538787       -1.3471095897
 C         -4.7661332158       -3.2666069974       -0.9763718165
 C         -3.5516688558       -3.8219752639       -0.6185856591
 O         -3.5432371265       -5.1566596786       -0.2991235950
 C         -2.3300695238       -5.7315033674       -0.0091122947
 C         -2.3272357981       -7.0878815661        0.2571958667
 C         -1.1463874163       -7.7329130692        0.5948131256
 C          0.0248362425       -7.0079754053        0.6791771462
 C          0.0287178722       -5.6476877166        0.4094433120
 C         -1.1397192535       -4.9934349851        0.0414478173
 C          0.0324202629       -1.8069653390        0.8165456899
 C          1.1247314871       -0.9694919770        0.8792512503
 N          4.5201150372       -0.6988436412       -0.1559909769
 C          5.5782341490        0.1327343565       -0.0725408727
 C          6.8799402520       -0.3709032605       -0.2235073542
 H          8.6318067083        2.4659768397        0.4236033513
 H          6.3319344823        3.3842198373        0.6591223933
 H          1.0760714973        0.6136921203       -1.5806147674
 H         -1.2141306228        1.5076353233       -1.4893508509
 H         -1.8276952900        0.7825295480        1.0793453215
 H         -3.6264176998       -0.7430906775        1.7512012603
 H         -5.9808264210        0.0035406457        1.6751059797
 H         -6.4975644783        2.3310612420        0.9707797401
 H         -5.2490868746        6.5444297237       -0.2851107582
 H         -3.5488466209        8.2388761982       -0.9268430270
 H         -1.1704074061        7.5680864250       -1.0822950622
 H         -0.5035956360        5.2693766304       -0.5688296331
 H         -0.0810464567        4.1310690008        1.6828257467
 H          2.2206864586        3.2201979425        1.6025816295
 H          3.0052516066       -2.3395969193       -1.5695822096
 H          1.0363199443       -3.8350723316       -1.6995955649
 H         -1.5859267395       -1.1103558825       -1.0462815557
 H         -3.7429461406       -0.1317306909       -1.6822019783
 H         -5.7960774640       -1.5053818171       -1.6192817255
 H         -5.6397199400       -3.8983820506       -0.9633804106
 H         -3.2629966400       -7.6207415827        0.2027979569
 H         -1.1538482489       -8.7916432925        0.7995498993
 H          0.9478273777       -7.4916974608        0.9592714732
 H          0.9472707181       -5.0891049176        0.4972390854
 H         -0.7968908826       -1.6760100505        1.4956890688
 H          1.1614603815       -0.1921778840        1.6281042579
 H          7.0157005927       -1.4151157217       -0.4603551521
  79
  -132.436507300800       0.123298727348051      !
 N         10.4440524464       -0.4604842639       -0.2839580163
 C          9.3779850327       -0.0617225160       -0.1453068818
 C          8.0680714350        0.4415123914        0.0302802816
 C          7.9013342767        1.7720124729        0.4832052451
 C          6.6498013453        2.2903128356        0.6540423589
 C          5.5182619009        1.4971187020        0.3798193121
 N          4.2830956314        2.0312698879        0.4645489735
 C          3.2546199575        1.2608157979        0.2293952010
 C          1.9109721310        1.8524419555        0.2075930626
 C          1.0338387895        1.5512945294       -0.8334224158
 C         -0.2705041326        1.9969570272       -0.7934091569
 C         -0.7193936961        2.7315481157        0.2988444442
 N         -2.0915499614        3.0776242630        0.3978094384
 C         -2.9722461600        2.1768272745        0.9977182386
 C         -2.5228251450        1.0559621215        1.6814853592
 C         -3.4227905970        0.1739460587        2.2604572751
 C         -4.7795825973        0.4002414878        2.1631964284
 C         -5.2426983129        1.5194087496        1.4856283527
 C         -4.3517706801        2.4034586711        0.9082701996
 O         -4.8766470162        3.4891894258        0.2491050673
 C         -3.9972189836        4.3174112022       -0.4075434302
 C         -4.5309197607        5.3657246953       -1.1318247680
 C         -3.6965232285        6.2415576119       -1.8135004863
 C         -2.3294487848        6.0607212086       -1.7673207564
 C         -1.7871887297        5.0084332390       -1.0441872347
 C         -2.6102382425        4.1260560437       -0.3587449392
 C          0.1669938330        3.0907202917        1.3059508199
 C          1.4810986246        2.6651467234        1.2522413569
 C          3.4236415340       -0.1485109220       -0.0148179300
 C          2.2604983498       -1.0385381552       -0.0563073108
 C          2.1421122674       -2.0056940297       -1.0510511643
 C          0.9943810908       -2.7670544836       -1.1550512841
 C         -0.0467649549       -2.5855934806       -0.2488365933
 N         -1.2569984370       -3.2940303125       -0.3737981569
 C         -2.4481696386       -2.5889687855       -0.5729322195
 C         -2.4611087502       -1.2312737671       -0.8662930541
 C         -3.6569072658       -0.5628677958       -1.0755928839
 C         -4.8570389676       -1.2379426529       -0.9935957280
 C         -4.8591521513       -2.5999077892       -0.7323965478
 C         -3.6684104666       -3.2750509634       -0.5374415298
 O         -3.7431231646       -4.6290268341       -0.3264676106
 C         -2.5617240031       -5.3158069526       -0.1894557865
 C         -2.6500215407       -6.6847304254       -0.0182095510
 C         -1.5030956096       -7.4438600830        0.1623588214
 C         -0.2719156917       -6.8209944844        0.1861992368
 C         -0.1768976711       -5.4483683249        0.0125670055
 C         -1.3134258759       -4.6785632951       -0.1977981344
 C          0.1003369434       -1.6703741202        0.7917475938
 C          1.2395698081       -0.9036300137        0.8858592104
 N          4.6147229595       -0.6569565229       -0.1947074742
 C          5.6864341857        0.1474089247       -0.0384738708
 C          6.9798786738       -0.3646466669       -0.2294278586
 H          8.7802280155        2.3664134270        0.6848795746
 H          6.4957837531        3.3046689559        0.9872705904
 H          1.3761438546        0.9627236833       -1.6719845976
 H         -0.9566118243        1.7606139125       -1.5933266941
 H         -1.4616085236        0.8745227716        1.7548128214
 H         -3.0531044515       -0.6927716198        2.7870227049
 H         -5.4834320767       -0.2855779737        2.6068015908
 H         -6.2976486776        1.7217180112        1.3927444475
 H         -5.6025549814        5.4827959361       -1.1512227044
 H         -4.1233643977        7.0581319347       -2.3739134282
 H         -1.6709833715        6.7362901365       -2.2911912651
 H         -0.7173258860        4.8700906592       -1.0060107610
 H         -0.1854044633        3.6858832767        2.1348467952
 H          2.1760998872        2.9259268695        2.0356791261
 H          2.9458257847       -2.1265433195       -1.7611013576
 H          0.8876641383       -3.4873327926       -1.9523761435
 H         -1.5276716874       -0.6942928060       -0.9333950649
 H         -3.6420428393        0.4912839324       -1.3036480241
 H         -5.7895639541       -0.7178767676       -1.1422730635
 H         -5.7783491025       -3.1611854751       -0.6823755615
 H         -3.6287068995       -7.1371524737       -0.0206624334
 H         -1.5822488500       -8.5109306991        0.2954919580
 H          0.6277780734       -7.3949204549        0.3454360405
 H          0.7897216988       -4.9716528758        0.0536352410
 H         -0.6952763244       -1.5624664703        1.5133219969
 H          1.3498789140       -0.2071185315        1.7036501255
 H          7.0974927589       -1.3852870357       -0.5599117536
  79
  -132.435988041400       7.117434781923056E-002 !
 N         10.4716670827       -0.4030434640       -0.4553473914
 C          9.4100047614       -0.0133799423       -0.2656870680
 C          8.1030356759        0.4768238770       -0.0386612567
 C          7.9395036868        1.8051088165        0.4214693989
 C          6.6896486836        2.3118400755        0.6346072198
 C          5.5567803454        1.5100368146        0.3933908946
 N          4.3206629658        2.0375132357        0.5074603586
 C          3.2927330680        1.2625594787        0.2891103893
 C          1.9430467188        1.8433224515        0.2773210811
 C          1.0953269676        1.5893848989       -0.7996032818
 C         -0.2164116704        2.0128006109       -0.7669403437
 C         -0.7060152289        2.6679916707        0.3581703403
 N         -2.0871977437        2.9759072416        0.4491490834
 C         -2.9429581749        2.0490081261        1.0500478495
 C         -2.4620972015        0.9628492064        1.7671545922
 C         -3.3352727847        0.0472737588        2.3346499391
 C         -4.6980348703        0.2043128836        2.1925574255
 C         -5.1930426370        1.2886850493        1.4828401813
 C         -4.3284376298        2.2058693307        0.9169642924
 O         -4.8864349281        3.2506256149        0.2209356964
 C         -4.0303547314        4.0918209446       -0.4489341439
 C         -4.5948489654        5.0881888026       -1.2222574316
 C         -3.7862000474        5.9766755036       -1.9178155463
 C         -2.4133554556        5.8613857059       -1.8352736433
 C         -1.8406431269        4.8622815465       -1.0623232947
 C         -2.6377283346        3.9655311384       -0.3642434299
 C          0.1511034430        2.9806541315        1.4058649829
 C          1.4752061066        2.5859279006        1.3568868788
 C          3.4630131472       -0.1457368680        0.0371248322
 C          2.2968258754       -1.0323549734       -0.0013242973
 C          2.1669738208       -1.9909327837       -1.0030063116
 C          1.0058931982       -2.7308215362       -1.1193282392
 C         -0.0381672841       -2.5312024205       -0.2212200996
 N         -1.2750095782       -3.1898318074       -0.3710042531
 C         -2.4219545523       -2.4310634533       -0.6212877328
 C         -2.3532976426       -1.0863443441       -0.9613256203
 C         -3.5056536763       -0.3643905233       -1.2286042079
 C         -4.7420074506       -0.9712539252       -1.1530970499
 C         -4.8246801345       -2.3199809943       -0.8404948113
 C         -3.6774555804       -3.0501925434       -0.5915315290
 O         -3.8274327646       -4.3899345884       -0.3340231776
 C         -2.6855010890       -5.1352774262       -0.1664398061
 C         -2.8461903439       -6.4939748682        0.0289031954
 C         -1.7417406913       -7.3067823829        0.2403771169
 C         -0.4801262797       -6.7485187282        0.2680784317
 C         -0.3119354215       -5.3864192626        0.0689010697
 C         -1.4053537906       -4.5644017654       -0.1686766748
 C          0.1238602334       -1.6354423070        0.8332703117
 C          1.2779689560       -0.8935164336        0.9424524021
 N          4.6526150768       -0.6489814643       -0.1638443180
 C          5.7229520855        0.1617578491       -0.0300887319
 C          7.0140884747       -0.3396972576       -0.2604203671
 H          8.8191221494        2.4077216663        0.5934159029
 H          6.5374886063        3.3247334095        0.9731190124
 H          1.4665251446        1.0512336082       -1.6597193057
 H         -0.8772316206        1.8165847934       -1.5983607128
 H         -1.3963124171        0.8338939704        1.8747855681
 H         -2.9401308713       -0.7910320900        2.8884591791
 H         -5.3810351705       -0.5089896723        2.6252934153
 H         -6.2530861947        1.4370658938        1.3534702698
 H         -5.6701341492        5.1549107398       -1.2673891553
 H         -4.2366867310        6.7527689254       -2.5160489287
 H         -1.7744056943        6.5489864837       -2.3677462606
 H         -0.7666204819        4.7789929771       -0.9929160498
 H         -0.2319874319        3.5152233354        2.2620978746
 H          2.1464164043        2.8132964869        2.1711496845
 H          2.9715824748       -2.1192568955       -1.7107628773
 H          0.8899590073       -3.4429497955       -1.9227534889
 H         -1.3898083936       -0.6042282664       -1.0203677189
 H         -3.4282869958        0.6764840633       -1.5021850797
 H         -5.6411778313       -0.4090810148       -1.3473161542
 H         -5.7744827689       -2.8279189817       -0.7930962566
 H         -3.8464294044       -6.8964232658        0.0209382018
 H         -1.8776490116       -8.3657346179        0.3916617939
 H          0.3864436453       -7.3656284740        0.4486876645
 H          0.6768984354       -4.9574369263        0.1104151394
 H         -0.6746570533       -1.5200456337        1.5502039249
 H          1.4000701289       -0.2125694824        1.7714309252
 H          7.1298462190       -1.3590139048       -0.5956061233
