  112
       -169.66815686
 C        -12.6956689773        2.8307272569        1.4965120047
 C        -11.4129999388        2.7100140513        2.0054492625
 C        -10.6064486179        1.6544663688        1.6272132545
 C        -11.0729609893        0.7023082506        0.7209765648
 N        -10.2560136673       -0.3649973684        0.3321037637
 C        -10.8088195274       -1.6317163735        0.1190362869
 C        -10.3235718082       -2.4541021722       -0.8979025570
 C        -10.8708056281       -3.7055829917       -1.1027390237
 C        -11.9126593558       -4.1551714348       -0.3082405469
 C        -12.4011005111       -3.3412936920        0.7008402216
 C        -11.8542247704       -2.0920707907        0.9197430700
 C         -8.8853262036       -0.1595873035        0.1498909998
 C         -7.9641697579       -1.1406298893        0.5178766244
 C         -6.6130772216       -0.9352156086        0.3305405111
 C         -6.1389958712        0.2554238937       -0.2144800966
 C         -4.6917628496        0.4736891837       -0.4034640711
 C         -3.9812123179       -0.3108568122       -1.3245785864
 C         -4.6214101366       -1.2918294886       -2.1266800296
 C         -3.9191476903       -2.0461424642       -3.0154881129
 C         -2.5299333364       -1.8624113207       -3.1656656274
 C         -1.8808607382       -0.9184170784       -2.4319778865
 C         -2.5764166513       -0.1108548109       -1.4942592903
 C         -1.9180310806        0.8770219012       -0.7504267796
 C         -0.4652583534        1.0907462500       -0.9344542841
 C         -0.0227806393        2.1399758812       -1.7311273900
 C          1.3243382236        2.3595699083       -1.9370217585
 C          2.2800768345        1.5347279883       -1.3418414307
 C          3.6767988111        1.7147102455       -1.5528224345
 C          4.5889565378        0.9133392637       -0.9555037115
 C          4.1936824478       -0.1424464637       -0.0809818207
 C          5.1237290505       -0.9794779279        0.5624984930
 C          6.5730217517       -0.7536205812        0.4686134337
 C          7.4251015501       -1.7922751769        0.0988656610
 C          8.7884149726       -1.6011528559        0.0226640202
 C          9.3469958006       -0.3615737319        0.3366649583
 N         10.7276848499       -0.1630465576        0.2624875654
 C         11.2355367996        1.0656561138       -0.1733796644
 C         10.5924261114        1.7782551681       -1.1854934502
 C         11.0948403525        2.9929131091       -1.6095308814
 C         12.2467888678        3.5128134157       -1.0423682842
 C         12.8925537460        2.8068952410       -0.0404957010
 C         12.3927714644        1.5958052971        0.3968650520
 C         11.6031917252       -1.1942016540        0.6216099646
 C         12.7888045505       -1.3943294620       -0.0851888408
 C         13.6515885944       -2.4105617872        0.2762805169
 C         13.3460790665       -3.2469446321        1.3375649851
 C         12.1677724406       -3.0552890768        2.0403064088
 C         11.3026240486       -2.0364546912        1.6919583237
 C          8.4996619709        0.6753549645        0.7300968477
 C          7.1360422348        0.4810691856        0.7888251828
 C          4.6668302646       -2.0513256582        1.3256195635
 C          3.3207403034       -2.2876140763        1.5024893480
 C          2.3686989524       -1.4533289964        0.9141819504
 C          0.9709889456       -1.6520114064        1.1020394692
 C          0.0599505419       -0.8392499184        0.5198919372
 C          0.4666779359        0.2430347177       -0.3147503435
 C          1.8513879736        0.4672818496       -0.5154368990
 C          2.8069072530       -0.3757787831        0.1057315866
 C         -2.6281246759        1.6696707301        0.1598495808
 C         -1.9811116552        2.6686922339        0.9335826695
 C         -2.6720650453        3.4205983024        1.8324168271
 C         -4.0516440933        3.2059594642        2.0245800030
 C         -4.7069049968        2.2533581760        1.3067717917
 C         -4.0305784195        1.4618614878        0.3415014670
 C         -7.0607909600        1.2350248258       -0.5746754399
 C         -8.4142331039        1.0316493270       -0.4029222976
 C        -12.3635731559        0.8313720079        0.2081159838
 C        -13.1655594441        1.8857361695        0.5989882841
 H        -13.3244316799        3.6548674401        1.7968542547
 H        -11.0395470316        3.4385219475        2.7100345890
 H         -9.6103503087        1.5567233155        2.0335344962
 H         -9.5193781777       -2.1018444930       -1.5271311409
 H        -10.4863323101       -4.3304262816       -1.8954680030
 H        -12.3408263944       -5.1318087482       -0.4743425320
 H        -13.2099244242       -3.6847475154        1.3288187022
 H        -12.2309404458       -1.4637089055        1.7134653276
 H         -8.3170377355       -2.0630786376        0.9550164512
 H         -5.9084170170       -1.6988053398        0.6270122237
 H         -5.6877941105       -1.4251372644       -2.0238461338
 H         -4.4223156846       -2.7878997581       -3.6184142521
 H         -1.9888500407       -2.4707979403       -3.8753866923
 H         -0.8190297658       -0.7643794019       -2.5544821079
 H         -0.7537002165        2.7849080307       -2.1984334439
 H          1.6492598663        3.1756111222       -2.5665702256
 H          3.9928400568        2.5088532562       -2.2147605727
 H          5.6419224244        1.0527805690       -1.1482600003
 H          7.0061889017       -2.7538506702       -0.1603621775
 H          9.4327876381       -2.4110267992       -0.2863670868
 H          9.7006735213        1.3695443106       -1.6377984283
 H         10.5875663860        3.5327255106       -2.3956080042
 H         12.6384724507        4.4604956701       -1.3788842953
 H         13.7885512797        3.2063565552        0.4112524945
 H         12.8925224997        1.0526347333        1.1855210539
 H         13.0246292436       -0.7493642585       -0.9189988736
 H         14.5657404454       -2.5549375629       -0.2804910069
 H         14.0214234556       -4.0416905787        1.6152077766
 H         11.9236450661       -3.6985493265        2.8729033903
 H         10.3896484735       -1.8821685597        2.2483431024
 H          8.9219140439        1.6334540597        0.9955638581
 H          6.4960817902        1.2869838260        1.1178152930
 H          5.3917738625       -2.6914558638        1.8084330417
 H          2.9910813087       -3.1177432851        2.1108950257
 H          0.6546149014       -2.4737413903        1.7290653135
 H         -0.9975260428       -0.9956666645        0.6739123975
 H         -0.9202532419        2.8170545258        0.7956946112
 H         -2.1681240412        4.1790568957        2.4133018113
 H         -4.5823436893        3.8002471804        2.7540109038
 H         -5.7602145919        2.0804032060        1.4682115172
 H         -6.7081990839        2.1580502488       -1.0118547449
 H         -9.1190321654        1.7943279659       -0.6996836383
 H        -12.7285522328        0.1014087429       -0.4994788958
 H        -14.1621880122        1.9747045268        0.1924422043
