112
 energy: -169.672166407722 gnorm: 0.000037942194 xtb: 6.7.1 (edcfbbe)
C          -12.91100743629986        2.81289884212570        0.81084624665906
C          -11.66592568690854        2.78304142226008        1.41872849658636
C          -10.80672638485824        1.72313700067720        1.20213374983918
C          -11.18211900046734        0.67509110676802        0.36086699124342
N          -10.31526964149797       -0.40203405442294        0.13791885268008
C          -10.83194498953116       -1.69940009576027        0.02581732491546
C          -10.29248533777960       -2.59657680502369       -0.89644841955801
C          -10.80251295103962       -3.87626847708881       -1.00134855425700
C          -11.85844065250827       -4.27881611156100       -0.19904526554934
C          -12.40061153668401       -3.38972719862907        0.71549620026475
C          -11.89300724731017       -2.11013126983321        0.83303800921027
C           -8.94169112215866       -0.18711661489221        0.03603187345407
C           -8.03300959901003       -1.12406722240342        0.53779344805488
C           -6.67746244569831       -0.91001341053913        0.43365480766364
C           -6.16817034899200        0.25250360862465       -0.15752388071749
C           -4.72936948776033        0.48236876938932       -0.24750900319412
C           -3.89814767806155       -0.46739850242256       -0.90389424915526
C           -4.44481354301276       -1.57661853487114       -1.57583332502521
C           -3.65464553005349       -2.45995206760002       -2.28033423896841
C           -2.28702618141212       -2.23678067377522       -2.37758076436853
C           -1.72511785271035       -1.13957025348122       -1.75767715510178
C           -2.49098454125322       -0.25305119032314       -0.98423201760933
C           -1.90888562992553        0.91506235236558       -0.39751686785221
C           -0.48981888238637        1.16367961439409       -0.50068298570988
C           -0.04917605367434        2.35666185736682       -1.10293706125988
C            1.27508130925605        2.59391951734724       -1.34854343156276
C            2.26620434293076        1.67248648481962       -0.94544949676592
C            3.63344475744343        1.87464279504424       -1.21554072844970
C            4.58161703216763        0.99008579993495       -0.78344473703355
C            4.23117261373396       -0.14888268599945       -0.01953173959904
C            5.19796794294614       -1.06082548302214        0.47516965587300
C            6.63525682382590       -0.80941340061249        0.36360108593983
C            7.49784948279120       -1.80686030586348       -0.09761258541727
C            8.85545973652689       -1.59130414643107       -0.18800021282752
C            9.40716926533915       -0.36940878998280        0.20459549590328
N           10.78270091096403       -0.14766212433457        0.11767130719252
C           11.27089169796947        1.12071707958535       -0.21977635316832
C           10.60774555896097        1.90716843162108       -1.16247248829107
C           11.09069193662609        3.16016090769560       -1.48724521838822
C           12.24204937954310        3.64592063357034       -0.88817107121157
C           12.90845391300859        2.86620377334776        0.04373508554411
C           12.42876072888194        1.61531449984533        0.38141969894395
C           11.67883260835830       -1.19482777382560        0.36909372900880
C           12.83970811112167       -1.32984201067853       -0.39268035441428
C           13.72241613439769       -2.36186985002371       -0.13835126016579
C           13.46144388680733       -3.27678056556893        0.86930137034158
C           12.30836395814281       -3.14853116456764        1.62723011615089
C           11.42315395161114       -2.11571392355987        1.38544392391873
C            8.55367380270378        0.62380032534605        0.69176618176812
C            7.19516798298361        0.40765850178165        0.76222360748536
C            4.77198097716619       -2.22615717155280        1.11551649695132
C            3.44076594516876       -2.47826247738780        1.34400673636119
C            2.45509539491225       -1.56961239888154        0.91800367066811
C            1.08273739401492       -1.77116836396615        1.18462434945924
C            0.13793917571947       -0.89429271313797        0.73585871411816
C            0.49098814291802        0.23705465026442       -0.03343680529643
C            1.86700100184309        0.49896766108477       -0.25669013384559
C            2.85293693358306       -0.40683158172221        0.21200616593164
C           -2.75244761371479        1.87527964711849        0.24259470630293
C           -2.21256146115398        2.98022001405879        0.92023806745247
C           -3.01246737536184        3.88664756469811        1.58824465666699
C           -4.38459106376072        3.68376275702708        1.64690355901569
C           -4.94048368783306        2.57350936488351        1.04574772183920
C           -4.15991788658924        1.65601754390607        0.31862505867750
C           -7.08558261239675        1.18607693348893       -0.65445445916971
C           -8.44223087878908        0.97014680490242       -0.56939914863430
C          -12.43519209049127        0.71177374891814       -0.25165830714208
C          -13.29021531942764        1.77247311940975       -0.02252606075529
H          -13.58134019378917        3.64087223135840        0.98563314417073
H          -11.36453374127947        3.58651366488756        2.07484506106445
H           -9.84227344714498        1.69536148137199        1.68795864838620
H           -9.47711078118070       -2.28015977874016       -1.53061365582681
H          -10.37817856852907       -4.56083500260803       -1.72125260845783
H          -12.25593643447871       -5.27879532321949       -0.28590149116343
H          -13.22006199907671       -3.69709464642660        1.34862345263006
H          -12.31005751300038       -1.42172601657780        1.55354934265960
H           -8.40381835531810       -2.01432948156344        1.02471050875767
H           -5.99018642059179       -1.63084197642925        0.85253683468104
H           -5.51334837079821       -1.72671495036414       -1.55586530355142
H           -4.10408427670983       -3.30879811579096       -2.77523494199331
H           -1.66400109871330       -2.90645051733424       -2.95245813170309
H           -0.66833849315957       -0.95469180284092       -1.87666648132278
H           -0.79362057076264        3.05828595499153       -1.45364519299558
H            1.57910020876543        3.48603069711754       -1.87792385132996
H            3.92429459245904        2.74919793430455       -1.78123667879336
H            5.61906495309040        1.15235945505391       -1.03395959473510
H            7.08710396441896       -2.75181366528500       -0.42269955106675
H            9.50184397334212       -2.36614575077373       -0.57401866804925
H            9.71667326567433        1.52600020434253       -1.63969660379558
H           10.56825441129606        3.75815277456380       -2.21983400309606
H           12.61756755166134        4.62466540355053       -1.14624277392622
H           13.80450953278014        3.23832166192137        0.51882903853075
H           12.94456713144474        1.01376170869264        1.11570199697272
H           13.04018670234021       -0.62348717614807       -1.18514155028262
H           14.61637001941826       -2.45702649604769       -0.73737895503437
H           14.15209927900759       -4.08366157142803        1.06305085899204
H           12.09990656578475       -3.85303623126681        2.41929055694284
H           10.53002757365110       -2.01120050372347        1.98419783800884
H            8.96926977510210        1.56384092080889        1.02474966049527
H            6.55492982853359        1.17657729079623        1.16995082591153
H            5.51750172883811       -2.92062058839343        1.47765585422754
H            3.13661855243755       -3.37147089462859        1.87093841397364
H            0.79035565001494       -2.63844273828374        1.76009919488128
H           -0.90457073826730       -1.06183790044247        0.96361359403668
H           -1.14191718175094        3.11688877825741        0.93454787235185
H           -2.56465676433745        4.73556575093103        2.08421528995692
H           -5.01483039471039        4.37699441496513        2.18519039027251
H           -5.99905821601651        2.39288386107194        1.15220877505815
H           -6.71701278549953        2.07257941781970       -1.15013537767278
H           -9.13140697121445        1.69148729075260       -0.98392202135438
H          -12.72914315128617       -0.09318755011354       -0.90931361661592
H          -14.25668254214918        1.79021565340067       -0.50470455004650
