112
 energy: -169.672153284415 gnorm: 0.000047689023 xtb: 6.7.1 (edcfbbe)
C          -12.91073852232312        2.76956816016447        1.02062585718620
C          -11.65127475710135        2.73883623483506        1.59805938689732
C          -10.78648111562753        1.69388612787220        1.33597832190077
C          -11.17078377694857        0.66200207837116        0.47879032792107
N          -10.29866453525893       -0.39978143800966        0.20953169721995
C          -10.80440940025247       -1.69906655851180        0.07094881971943
C          -10.27588251105790       -2.56224900268224       -0.88929030794542
C          -10.77366543243963       -3.84427380761300       -1.02080075615719
C          -11.80623399851073       -4.28281826708372       -0.20701029807182
C          -12.33776383748714       -3.42736655558432        0.74509262446273
C          -11.84227862502816       -2.14567996367712        0.88908669152992
C           -8.92895178375363       -0.17011229553788        0.08826922962996
C           -8.00446616832371       -1.11222152135902        0.54987049665657
C           -6.65281689499338       -0.88459922206679        0.42732239313325
C           -6.16292629522339        0.29662235015053       -0.14302213662044
C           -4.72710663708089        0.53711029643663       -0.25085579002730
C           -3.90265517094330       -0.39300593085971       -0.94301514975931
C           -4.45514099380370       -1.48553561748566       -1.63728682981977
C           -3.67233012425154       -2.34533663500304       -2.37802956498015
C           -2.30692440736277       -2.11449994379493       -2.48837105659392
C           -1.73968993121598       -1.03390820127351       -1.84474069001230
C           -2.49734097309862       -0.17303267546669       -1.03511274039791
C           -1.90880872186847        0.97758715007931       -0.42064389046602
C           -0.48826028868850        1.21841042349304       -0.52051860891087
C           -0.03705947887171        2.42350035484950       -1.08986227874945
C            1.28918113404611        2.65520133129066       -1.33022033823557
C            2.27209231148862        1.71327822035178       -0.95507868238077
C            3.64092115199067        1.91031606318509       -1.22080257073596
C            4.58154503350196        1.00611324241689       -0.81328728315030
C            4.22118207102001       -0.15040975535196       -0.08113413273725
C            5.18019201170002       -1.08248263483627        0.39083419327873
C            6.61957910439076       -0.83747441036307        0.29514187513053
C            7.48014672417733       -1.82942769926790       -0.18173321180044
C            8.84033018072989       -1.62246718971814       -0.25047846763599
C            9.39669958793678       -0.41587022726674        0.18091033010436
N           10.77533016160229       -0.20409200877873        0.12076462031340
C           11.27721901375871        1.06869309541093       -0.17889890165267
C           10.63881049727994        1.87697621426579       -1.12009985630228
C           11.13466665827922        3.13360098003478       -1.40935449125782
C           12.27451511522542        3.60154605400754       -0.77513244100876
C           12.91581538047029        2.80050411982205        0.15632442766099
C           12.42312265217728        1.54551640000836        0.45830159596927
C           11.65971336674414       -1.26279585692769        0.36322835606963
C           12.83846331028472       -1.38204288577896       -0.37350810844334
C           13.70969754310999       -2.42587047099849       -0.12811838078888
C           13.41948542949426       -3.36901967169087        0.84489139164212
C           12.24878554473878       -3.25650476334483        1.57789168226445
C           11.37512517266916       -2.21179198173679        1.34562513721248
C            8.54463300182857        0.57259521679524        0.68007287453175
C            7.18381591150712        0.36557733553885        0.72891662418573
C            4.74403430589147       -2.26215156390355        0.99751179245373
C            3.41061400345920       -2.51038231009870        1.21645686490571
C            2.43287015498099       -1.58170841813478        0.81590492590105
C            1.05896249785977       -1.77866362532424        1.07722572976944
C            0.12188962803578       -0.88054213541938        0.65501221861342
C            0.48452479716031        0.26941083999479       -0.08140319674045
C            1.86263894703469        0.52435953730114       -0.29941556418911
C            2.84070988025756       -0.40311312290655        0.14267337300908
C           -2.74665949086534        1.92278619289295        0.24876090906353
C           -2.20213662608901        3.01388579774770        0.94496922083282
C           -2.99664074631263        3.90324658408120        1.64165368248378
C           -4.36747105536792        3.69524360669997        1.71170675259954
C           -4.92721581862065        2.59706754462611        1.09241930730759
C           -4.15310676559309        1.69888445023461        0.33489393318512
C           -7.09595474208471        1.23474917886254       -0.60049162677279
C           -8.44932178149392        1.00584677891300       -0.49666890493195
C          -12.43847433454965        0.69967542084300       -0.10296320825744
C          -13.29885220337713        1.74508591102616        0.17176027832439
H          -13.58490414556738        3.58615251009941        1.23067683211650
H          -11.34266611714208        3.52988622331662        2.26584766397564
H           -9.81067352543755        1.66532343901522        1.79851012163142
H           -9.47890893838239       -2.21720655138464       -1.53191398149721
H          -10.35812255681803       -4.50222620492525       -1.77005658737578
H          -12.19413688936297       -5.28460819737623       -0.31419048540252
H          -13.13930422473198       -3.76299224215238        1.38678473558511
H          -12.25081268442974       -1.48350635586952        1.63850704270053
H           -8.35986823343195       -2.01753787125368        1.02020534029973
H           -5.95265000302198       -1.61008560478407        0.81570884963396
H           -5.52271330627202       -1.64048777188377       -1.60599246920184
H           -4.12605205640925       -3.18138939457894       -2.89044936233023
H           -1.69026475421601       -2.76490177572803       -3.09153645258775
H           -0.68525074438833       -0.84180966012525       -1.97282881723270
H           -0.77513266788697        3.14137741659438       -1.42056099363922
H            1.60110824712265        3.55903778478092       -1.83450361178210
H            3.93936591926799        2.79751756347793       -1.76233018985874
H            5.62036263334753        1.16604785373406       -1.05966116685984
H            7.06630764517373       -2.76244528407825       -0.53604200594712
H            9.48547306781420       -2.39255228995202       -0.64792498323211
H            9.75681553360153        1.50958205374901       -1.62421716743276
H           10.63173599964349        3.74812527025330       -2.14189511369453
H           12.66047774548194        4.58318736712979       -1.00534019477701
H           13.80237754187957        3.15893781790376        0.65891989873756
H           12.91929702418809        0.92730212724477        1.19230010671464
H           13.06206633194902       -0.65413600404053       -1.13981530198666
H           14.61771073022400       -2.50818095245632       -0.70759689971252
H           14.10126882141772       -4.18509473086020        1.03137807257416
H           12.01717970419853       -3.98298388132402        2.34320936409281
H           10.46852534573993       -2.11985694195470        1.92587405376463
H            8.96319516388933        1.50080063731131        1.04133166453233
H            6.54467485084027        1.12945401841610        1.14762846900857
H            5.48351931070248       -2.97187717069922        1.34198784779190
H            3.09849435592967       -3.41569077110073        1.71740005520091
H            0.75893736413232       -2.65952338185831        1.62756833708423
H           -0.92173329136248       -1.04522016606493        0.87951833555645
H           -1.13182736241186        3.15326273792397        0.95091177316426
H           -2.54526202451270        4.74219013014936        2.15115772494345
H           -4.99314079905180        4.37415657339209        2.27310008953312
H           -5.98387363858661        2.41070067033386        1.20755436117681
H           -6.74321702533663        2.13602518276057       -1.08080004235272
H           -9.15142433427335        1.73166785871315       -0.88061679519420
H          -12.73965157930798       -0.09239116162889       -0.77289305122497
H          -14.27667662831734        1.76364576770216       -0.28694617400391
