  80
       -124.41026346
 O         -4.2959678501       -3.5514830353        1.7861261741
 C         -3.7887118857       -2.5054608455        1.3327338234
 C         -2.3439189110       -2.3607572477        1.2282510052
 C         -1.5639529177       -3.5310528631        1.1111446773
 C         -0.2087060796       -3.4626051797        0.9314822850
 C          0.4436314287       -2.2186190903        0.8871694575
 N          1.8198010907       -2.1509574392        0.6362114424
 C          2.6194705321       -1.2495645213        1.3316753337
 C          2.3130204275       -0.9031711032        2.6517756835
 C          3.1183802359       -0.0222997604        3.3443633995
 C          4.2400698954        0.5280784079        2.7429458798
 C          4.5411593040        0.2007385832        1.4283443654
 C          3.7408413361       -0.6748385121        0.7237432186
 C          2.3747124578       -3.0160067500       -0.3057544724
 C          1.6401117157       -3.3901688947       -1.4355013650
 C          2.1830774195       -4.2553689105       -2.3634139123
 C          3.4614334272       -4.7627994509       -2.1876105034
 C          4.1916037920       -4.4030243163       -1.0649404822
 C          3.6577083521       -3.5418581042       -0.1282410977
 C         -0.3098006564       -1.0544786638        1.1016843561
 C         -1.6690912878       -1.1243505130        1.2765498169
 C         -4.6539968120       -1.4228905087        0.8421056111
 C         -5.9979098707       -1.3756413444        1.2561920370
 C         -6.8539230190       -0.4234929601        0.7417910382
 C         -6.4052567559        0.5074136956       -0.1814255715
 C         -5.0703590450        0.4766884102       -0.5967232246
 C         -4.5533056203        1.4428870801       -1.5948027036
 O         -5.2295427517        1.8799479619       -2.5134122549
 C         -3.1357017355        1.8124737799       -1.3802060105
 C         -2.6550662165        2.0327368849       -0.0853039604
 C         -1.3223115922        2.2917048661        0.1344595197
 C         -0.4250006383        2.3144413854       -0.9371676249
 N          0.9415599708        2.5026809517       -0.6969543817
 C          1.8864444346        1.7636811018       -1.4057244510
 C          3.1399159760        2.3085038011       -1.6955718587
 C          4.0692437488        1.5768759290       -2.4066660153
 C          3.7672176824        0.2990492322       -2.8510596250
 C          2.5240202779       -0.2459824650       -2.5701625038
 C          1.5917587758        0.4710211779       -1.8472315233
 C          1.3366266574        3.4129003467        0.2892095581
 C          2.4085694926        3.1237565350        1.1335881380
 C          2.7826833377        4.0245922587        2.1108500337
 C          2.0973415672        5.2191347193        2.2646508041
 C          1.0288904051        5.5085333410        1.4300065211
 C          0.6473013431        4.6164774672        0.4478132560
 C         -0.9099445944        2.1463723832       -2.2380291775
 C         -2.2504094514        1.9152666153       -2.4547355669
 C         -4.2150412887       -0.5036965053       -0.1078861577
 H         -2.0692597521       -4.4837573794        1.1485386021
 H          0.3749916286       -4.3662903459        0.8309200115
 H          1.4547657350       -1.3499551748        3.1305682798
 H          2.8763692001        0.2276545425        4.3662800821
 H          4.8731208980        1.2083594525        3.2913196076
 H          5.4020278760        0.6378018683        0.9441137453
 H          3.9680100904       -0.9086566745       -0.3051147671
 H          0.6483804627       -2.9881865201       -1.5800738548
 H          1.6072728244       -4.5307383185       -3.2343969565
 H          3.8828932241       -5.4380198083       -2.9160912899
 H          5.1812964380       -4.8070000358       -0.9121319657
 H          4.2199166661       -3.2847456574        0.7571535248
 H          0.1899656607       -0.0961073138        1.1148983152
 H         -2.2218470722       -0.2199184071        1.4749547112
 H         -6.3423940462       -2.1041784195        1.9732562527
 H         -7.8859983997       -0.4053424338        1.0611660380
 H         -7.0662106181        1.2563225509       -0.5891167701
 H         -3.3413672186        2.0034892776        0.7481594339
 H         -0.9556705560        2.4533885954        1.1379400440
 H          3.3698669774        3.3130113276       -1.3729755489
 H          5.0319629046        2.0128546181       -2.6282374161
 H          4.4933825615       -0.2682236031       -3.4130028267
 H          2.2853572870       -1.2438790659       -2.9065986621
 H          0.6318314209        0.0344261659       -1.6142569131
 H          2.9323982009        2.1860491090        1.0257695406
 H          3.6097185291        3.7857664447        2.7622959816
 H          2.3921098239        5.9197728305        3.0305795507
 H          0.4929243378        6.4391363557        1.5408017511
 H         -0.1798271265        4.8448927431       -0.2079996005
 H         -0.2230698753        2.2025997987       -3.0699319687
 H         -2.6305656437        1.7870626871       -3.4569386861
 H         -3.2203978945       -0.5851604957       -0.5198691316
