93
 energy: -144.387850159894 gnorm: 0.000068220893 xtb: 6.7.1 (edcfbbe)
N           -0.00482324516334       -0.50273694305489        1.27009023455460
C            0.00686250686014        0.08378790669245        0.26323312810667
C            0.01668395302327        0.77335018571259       -0.92797841310496
C            1.24845778680054        1.21310000708437       -1.53433870319846
N            2.46356217851988        0.77120877868040       -1.00111424833733
C            2.81293768043471       -0.53665594925450       -0.75102215125852
C            2.11885605218595       -1.70753141870532       -1.02336201695589
C            2.70678565843480       -2.90846987618182       -0.68367817452393
C            3.98147616095315       -2.97162928074683       -0.09914145795319
C            4.56242824866508       -4.27032250232613        0.25772358525722
C            5.91695500035269       -4.53148332267628        0.04576526218432
C            6.45847014568278       -5.75842383072489        0.37939558876034
C            5.66111113522130       -6.74426661910881        0.93903159060277
C            4.31574045986055       -6.49498224026118        1.16011095719889
C            3.76936710500172       -5.27216356777099        0.81954263898103
C            4.69383962306829       -1.79333602867965        0.13152010167329
C            4.11724086416464       -0.57977522283853       -0.19354572302745
C            4.56648123329557        0.78449436992402       -0.11096878877929
C            5.73347443318656        1.37808779965686        0.33294944333874
C            5.85837811207912        2.76753944762119        0.27706859539638
C            7.09350306308499        3.41773418585302        0.72682759973147
C            7.77502414948520        2.95431230623508        1.85372668471392
C            8.93604314904569        3.57121322367487        2.27892613062240
C            9.44508215925511        4.65698720793701        1.58378191327135
C            8.78068651819454        5.12391500926868        0.46053132249249
C            7.61488434435898        4.51433355066642        0.03778026820755
C            4.78853965064942        3.54104389098271       -0.20363435277831
C            3.61196641247072        2.96837098681994       -0.64447896916465
C            3.50939493886566        1.58357963079191       -0.62008004533603
C            1.23425860831799        2.07460085258706       -2.60807264891880
C            0.03175465657268        2.52986322250596       -3.15385897629235
C           -1.17918539004636        2.09663189246651       -2.60620706982913
C           -1.20616627845093        1.23348179074608       -1.53504103186314
N           -2.42875139081517        0.80590728544918       -1.00468438563791
C           -3.45627957942840        1.63210445732734       -0.60555665396587
C           -3.52617309897468        3.01903043436526       -0.59739861794618
C           -4.68789762969263        3.60819111488056       -0.13897757149570
C           -5.77364571874302        2.84854566475116        0.32680034485830
C           -6.99063680602277        3.51650785236523        0.80038447932867
C           -7.67200095530393        3.04460173646624        1.92361620732631
C           -8.81509961350691        3.67799998343651        2.37261706775977
C           -9.30581383291211        4.78905504680794        1.70488887257096
C           -8.64132803706119        5.26462417848988        0.58537695087747
C           -7.49312942258131        4.63842394490503        0.13911597823029
C           -5.68292781955869        1.45552079372993        0.34612090590115
C           -4.53184717943541        0.84570000159434       -0.11713000199314
C           -4.11331975328642       -0.52619592453528       -0.23172510825177
C           -4.72018558990246       -1.73358908266871        0.05771783828233
C           -4.04492888421078       -2.92318874147248       -0.22292239560575
C           -4.67739501968189       -4.21489967284693        0.06515241988343
C           -5.42888541075281       -4.39534694693807        1.22767539396771
C           -6.02615300973267       -5.61137936274155        1.49992907606761
C           -5.89310132627453       -6.66861094654165        0.61358931772120
C           -5.15282257712031       -6.50131594861575       -0.54615441456753
C           -4.54687021711971       -5.28915963163001       -0.81659390186869
C           -2.76565388878840       -2.87436813077715       -0.79877631398379
C           -2.13946212779796       -1.67873116731892       -1.08552820005273
C           -2.80685216306382       -0.49922333042972       -0.78527709635162
H            1.14860022932820       -1.68352414821829       -1.49357786331039
H            2.18319694324626       -3.82772782039493       -0.89729801776571
H            6.54014909263313       -3.77523145492140       -0.40879149281497
H            7.50695262691127       -5.94895904968829        0.20076663604556
H            6.08594578873044       -7.70178001891285        1.20227827651993
H            3.69031449341615       -7.25725967373455        1.60216230396138
H            2.72501651461090       -5.07594231575291        1.01406744598131
H            5.67451245031813       -1.82809086582205        0.58053601317323
H            6.54794267161407        0.77125175273062        0.69729224113625
H            7.37348828247653        2.12262547797313        2.41406545269816
H            9.44604825847548        3.20627393014439        3.15887713929624
H           10.35423688487057        5.13651057880436        1.91561116654537
H            9.17566944128623        5.96622907427572       -0.08914085528084
H            7.11426946380822        4.87208898088241       -0.85003305368125
H            4.87911375381893        4.61649463433149       -0.20025527559730
H            2.79236452698373        3.58145770798756       -0.98751336376118
H            2.17192129620411        2.36754190932103       -3.05768111896954
H            0.03701877205668        3.18016671342309       -4.01254875613123
H           -2.11226472039027        2.40828147696534       -3.05275229441310
H           -2.69261310821793        3.62012638191142       -0.92799712715568
H           -4.75345109640696        4.68508314541211       -0.10940319963914
H           -7.28408051987673        2.19235278182629        2.46218655066674
H           -9.32529959169240        3.30617296892861        3.24956823288326
H          -10.20100478601861        5.28155655731359        2.05512842890692
H           -9.02209148635735        6.12710718396206        0.05738516422203
H           -6.99204907312049        5.00359927194129       -0.74542849069163
H           -6.51125183830526        0.85945173811728        0.69678376593654
H           -5.71931417986744       -1.75761130909646        0.46492825873230
H           -5.51966443545521       -3.58262370206502        1.93342047365705
H           -6.59679632169916       -5.73710488477367        2.40883808561782
H           -6.36385892776305       -7.61742338994768        0.82518552825435
H           -5.04953899536422       -7.31986781004426       -1.24396547135314
H           -3.98863173391659       -5.16135429704394       -1.73247377995036
H           -2.24830776949886       -3.79872956779298       -1.00498890984908
H           -1.15833263338435       -1.66478658095567       -1.53329148333363
