  93
       -144.32507387
 N         -0.0407705954       -0.5125710830        1.2718029816
 C         -0.0176107222        0.0771132240        0.2705536487
 C          0.0048336429        0.7789517653       -0.9186665002
 C          1.2410600690        1.2244835441       -1.5057692675
 N          2.4504826958        0.7746559647       -0.9760429280
 C          2.7970357003       -0.5337852381       -0.7302965820
 C          2.0910383315       -1.7015126859       -0.9816375807
 C          2.6800469267       -2.9039746645       -0.6476591840
 C          3.9659810610       -2.9704832003       -0.0899233356
 C          4.5464676996       -4.2685623453        0.2655998337
 C          5.8950450929       -4.5381577131        0.0310255209
 C          6.4372558198       -5.7633423998        0.3682552973
 C          5.6462915427       -6.7384878823        0.9541152535
 C          4.3066785645       -6.4808720636        1.1968871369
 C          3.7593839271       -5.2600483818        0.8523682697
 C          4.6895003134       -1.7960981268        0.1206790466
 C          4.1120699129       -0.5810311542       -0.1972701279
 C          4.5666161927        0.7796449351       -0.1204532374
 C          5.7397529366        1.3699570817        0.3109909284
 C          5.8627118155        2.7593930222        0.2669298643
 C          7.1025252424        3.4042042309        0.7067445234
 C          7.8061019923        2.9197543896        1.8107912636
 C          8.9740727212        3.5292994537        2.2255651354
 C          9.4676616803        4.6297912928        1.5431304432
 C          8.7807742498        5.1187006451        0.4434403954
 C          7.6086081564        4.5156678304        0.0307251291
 C          4.7858058564        3.5372413770       -0.1911095221
 C          3.6042837119        2.9673127244       -0.6231125601
 C          3.5027112093        1.5830431757       -0.6105225965
 C          1.2363335031        2.1092866977       -2.5620437432
 C          0.0397497189        2.5789562025       -3.1058013768
 C         -1.1759499220        2.1371392901       -2.5763730303
 C         -1.2108532876        1.2501432158       -1.5245703403
 N         -2.4357497098        0.8155450249       -1.0135028462
 C         -3.4655547145        1.6370021744       -0.6176931212
 C         -3.5307525800        3.0230786659       -0.5890727088
 C         -4.6930080169        3.6092267925       -0.1274155392
 C         -5.7835302605        2.8452813056        0.3188227359
 C         -6.9993774136        3.5092013445        0.7977670611
 C         -7.6914037351        3.0167168320        1.9049952921
 C         -8.8346367388        3.6456491159        2.3585495295
 C         -9.3141955683        4.7732093913        1.7115572699
 C         -8.6385595931        5.2699608341        0.6085387348
 C         -7.4905893888        4.6477161705        0.1576271416
 C         -5.6989172954        1.4523348862        0.3155807228
 C         -4.5464459542        0.8455813060       -0.1481174429
 C         -4.1257441620       -0.5233638681       -0.2703175454
 C         -4.7293455876       -1.7340666921        0.0116920969
 C         -4.0433952305       -2.9190611092       -0.2601503855
 C         -4.6625449298       -4.2132201450        0.0390904410
 C         -5.4216024309       -4.3839399320        1.1977961170
 C         -6.0000579385       -5.6040980947        1.4888525701
 C         -5.8391903852       -6.6759892626        0.6256573762
 C         -5.0918247651       -6.5186084836       -0.5304433500
 C         -4.5061666078       -5.3014068164       -0.8203470969
 C         -2.7606349119       -2.8641460285       -0.8271029207
 C         -2.1373816978       -1.6653095184       -1.1068965064
 C         -2.8128478238       -0.4903991922       -0.8090438863
 H          1.1106007505       -1.6762441493       -1.4269209086
 H          2.1479412947       -3.8221548793       -0.8421683113
 H          6.5126680400       -3.7890660561       -0.4429509454
 H          7.4809407523       -5.9605622735        0.1715346732
 H          6.0720682901       -7.6941014546        1.2210142261
 H          3.6868578489       -7.2343610049        1.6604782594
 H          2.7201602799       -5.0556927311        1.0637154580
 H          5.6781409783       -1.8342810004        0.5515729683
 H          6.5596710878        0.7604565268        0.6583644823
 H          7.4156042836        2.0768067383        2.3619890615
 H          9.5009778687        3.1475937696        3.0877420119
 H         10.3821519867        5.1037462874        1.8666099225
 H          9.1635421216        5.9724089437       -0.0964113275
 H          7.0897437661        4.8901505710       -0.8397000976
 H          4.8745161869        4.6125767254       -0.1737405891
 H          2.7793304010        3.5834227186       -0.9465497027
 H          2.1776363925        2.4076282426       -2.9998140770
 H          0.0526620591        3.2476593849       -3.9497133306
 H         -2.1052414018        2.4591726614       -3.0229509608
 H         -2.6926905644        3.6261146772       -0.9035101051
 H         -4.7547971577        4.6854902230       -0.0772010165
 H         -7.3110490148        2.1510948819        2.4275625473
 H         -9.3532194252        3.2573995906        3.2229223375
 H        -10.2091627285        5.2625139961        2.0654763810
 H         -9.0105020160        6.1453768711        0.0966154039
 H         -6.9798989152        5.0289398349       -0.7147156627
 H         -6.5324764620        0.8546227440        0.6508573303
 H         -5.7319145780       -1.7638892648        0.4098182871
 H         -5.5314765484       -3.5590493586        1.8863910980
 H         -6.5760911584       -5.7218901972        2.3949430311
 H         -6.2925502533       -7.6289735569        0.8533222811
 H         -4.9669202029       -7.3491379364       -1.2098496977
 H         -3.9417907915       -5.1815072665       -1.7336989614
 H         -2.2376989851       -3.7866231133       -1.0259283059
 H         -1.1528454698       -1.6459381242       -1.5442064850
