93
 energy: -144.481129617211 gnorm: 0.000066877442 xtb: 6.7.1 (edcfbbe)
N            0.00020817666323        0.00054201570256        1.25495796213367
C            0.00016545349403        0.00030050977086        0.10696547117113
C            0.00014053305915        0.00011914929534       -1.30434914931868
C            1.21037306463667       -0.12392198637273       -2.01116113076830
N            2.41687886410164       -0.26851084395694       -1.32385944267498
C            2.71383038477098       -1.24731653744971       -0.39116246405637
C            1.95192570542269       -2.32359833357811        0.03616046379992
C            2.51002362030078       -3.18417094565149        0.95965400837720
C            3.81092478657994       -3.00874101034456        1.44963561337306
C            4.35972597535565       -3.95688379978414        2.43259198121042
C            5.66864222461194       -4.42120405139295        2.31997635678800
C            6.18114148323608       -5.31622991680881        3.24110994086390
C            5.39667695472356       -5.75947240976734        4.29318467365322
C            4.09527934633654       -5.30141081250641        4.41756473333517
C            3.57982807765557       -4.40969658336437        3.49480051386557
C            4.58044852653375       -1.94723470321115        0.98997466962277
C            4.03678809447583       -1.06626011186207        0.06818886225500
C            4.55744336827926        0.08431605977347       -0.62145934415341
C            5.77323704118229        0.74892257998440       -0.58076886296841
C            5.96304068148116        1.86803514545202       -1.38285234586806
C            7.24532791526475        2.59023427048792       -1.35877868518580
C            8.45155597012319        1.89300060266237       -1.33435301613681
C            9.65718317474058        2.56970979038521       -1.31213490699280
C            9.67916033132587        3.95475356770125       -1.30948276807405
C            8.48632736924782        4.65858490325818       -1.33088396901647
C            7.27998060328578        3.98319135126355       -1.35753672522015
C            4.92392029216492        2.31042832127697       -2.21223311082695
C            3.70650508386594        1.66174477921853       -2.27156940043701
C            3.53133941286556        0.53748699736374       -1.47923030490021
C            1.19754054994851       -0.10691585729580       -3.40141627352434
C            0.00017896990503       -0.00028443579610       -4.08712085646530
C           -1.19719479224088        0.10653587223929       -3.40147137148993
C           -1.21007803575918        0.12394405592443       -2.01121689931243
N           -2.41663060033241        0.26859421156643       -1.32402252236831
C           -2.71370270325138        1.24741127802570       -0.39136782573625
C           -1.95196132613703        2.32383128129706        0.03590229792705
C           -2.51020052888176        3.18439093193622        0.95932769083927
C           -3.81108180934512        3.00880667171346        1.44930316480560
C           -4.36006824620323        3.95687741348139        2.43222402552453
C           -5.66905088502892        4.42099056876962        2.31952334547780
C           -6.18177992461153        5.31586681695238        3.24067305188712
C           -5.39748028745546        5.75916230619318        4.29284848055644
C           -4.09601019922543        5.30132513261723        4.41729757402891
C           -3.58032678734709        4.40976442758104        3.49451347317503
C           -4.58045379596929        1.94717714397487        0.98967689436391
C           -4.03665950912435        1.06624144009195        0.06793970399058
C           -4.55720417247614       -0.08437426661909       -0.62171675340738
C           -5.77299506806444       -0.74898652597908       -0.58113184984456
C           -5.96275043697116       -1.86804599190903       -1.38329873758413
C           -7.24507890021951       -2.59017405464768       -1.35940756217796
C           -8.45126339891561       -1.89286073696907       -1.33504437762086
C           -9.65693594214447       -2.56949189862171       -1.31295573901435
C           -9.67900126207289       -3.95453460406129       -1.31038285855642
C           -8.48621307525033       -4.65844392610739       -1.33173959824421
C           -7.27981995094701       -3.98312759228160       -1.35825858293461
C           -4.92355299630496       -2.31042033732490       -2.21259076184447
C           -3.70612602130854       -1.66174377884486       -2.27179316631479
C           -3.53103550430381       -0.53748488734218       -1.47943656114636
H            0.95388018997495       -2.49626563901218       -0.33929975432119
H            1.93517818828346       -4.03359637779677        1.29758952355119
H            6.28069780744259       -4.09226692970188        1.49238832211546
H            7.19635114139098       -5.67200258578046        3.13659712626986
H            5.79764091212247       -6.45821233145378        5.01302063743875
H            3.47924852649306       -5.63948607304786        5.23874829313056
H            2.56967052457229       -4.04244837659835        3.60671736516494
H            5.58471859653269       -1.79949002568159        1.35693845278080
H            6.55341325516961        0.41523019930390        0.08631049405846
H            8.44179750298287        0.81255260695789       -1.35227861661159
H           10.58442048750054        2.01456609789694       -1.29883801626768
H           10.62124609059502        4.48320119860866       -1.29035063398421
H            8.49632330997989        5.73936657217412       -1.32402969975449
H            6.35334257183300        4.53912024191536       -1.35590959704502
H            5.08783463729236        3.17600132072928       -2.83677990251549
H            2.91860285941510        2.02600465153417       -2.91387479503986
H            2.13100223138024       -0.20249860046776       -3.93385717977566
H            0.00018509134425       -0.00045849518263       -5.16606279734581
H           -2.13064175653894        0.20193908674941       -3.93396923403627
H           -0.95394156325132        2.49662953264462       -0.33956486670197
H           -1.93548982144922        4.03393000765627        1.29720806921870
H           -6.28098013207083        4.09200335498961        1.49186166060109
H           -7.19703866237176        5.67147873524193        3.13609225751703
H           -5.79862828076338        6.45777101369054        5.01270931864974
H           -3.48010260226720        5.63945353139233        5.23855130003581
H           -2.57011513142325        4.04268134192930        3.60648382065892
H           -5.58470783798583        1.79930705045267        1.35663332316689
H           -6.55322404589391       -0.41531147241261        0.08589406267884
H           -8.44142977955249       -0.81241293405880       -1.35292751291692
H          -10.58414003924531       -2.01429148002432       -1.29972780003850
H          -10.62112177492085       -4.48292198036185       -1.29135358476147
H           -8.49628391416272       -5.73922448489543       -1.32494063931232
H           -6.35321542336191       -4.53911099644933       -1.35658250693766
H           -5.08741139919339       -3.17597102422464       -2.83718273878783
H           -2.91816563558100       -2.02601539282017       -2.91401917966133
