54
 energy: -84.035873434058 gnorm: 0.000029306228 xtb: 6.7.1 (edcfbbe)
O            6.41040998040886       -2.30824989169973       -0.51756070376735
C            5.93724422808205       -1.15615468328062       -0.33188588320066
C            6.86675842141047       -0.01404960014636       -0.18136471374940
C            6.61296567599986        1.22632126604255       -0.77026872365106
C            7.52895744388754        2.25393568782936       -0.64883774127268
C            8.71063403753679        2.06209235189369        0.05116287986192
C            8.98182996428924        0.82524511281460        0.61615476897376
C            8.07409236595621       -0.20814603571976        0.49267566810534
C            4.52021331207681       -0.92641963469985       -0.25144371373180
C            3.63230840437530       -1.95022251226542       -0.67662588946120
C            2.28206454279455       -1.78410280205158       -0.63634101813540
C            1.68870730997158       -0.59933651334683       -0.11920555968180
C            0.27160915682703       -0.42224783040340       -0.08354725184797
C           -0.35064479258784        0.50814905086727        0.79046342583452
C           -1.70703575051766        0.67875106139813        0.81854131125098
C           -2.54369236726378       -0.07913496892470       -0.02012389633107
N           -3.92044040582084        0.08474159513990        0.01418995035602
C           -4.59275624798394        1.29303336364517        0.03000039783811
C           -4.09057606454015        2.58621229840128       -0.05294050412880
C           -4.99672032385218        3.63208107606097       -0.04993034673487
C           -6.36832615245359        3.40376709615007        0.01758314780940
C           -6.87677252973706        2.11497786706503        0.06276918981051
C           -5.98780479023360        1.05315309815924        0.06373635740516
C           -6.15585690937442       -0.37849197280675        0.07392182229403
C           -7.26523958142980       -1.20568428037149        0.12784084814548
C           -7.06688905374041       -2.57728347649737        0.15959345055312
C           -5.78366340039860       -3.11701049564888        0.16157924347339
C           -4.66121684508911       -2.30932113828799        0.11029673237432
C           -4.85432456339477       -0.93489287657899        0.04027071727868
C           -1.95160773526341       -1.00939003632443       -0.89304962241743
C           -0.59421521229401       -1.16923840355715       -0.92602175974742
C            2.58484384300903        0.38857491540787        0.37450975790686
C            3.93846476876487        0.23878909679482        0.30802360108079
H            5.71074764880861        1.37160654091492       -1.34661459847326
H            7.32390408488966        3.20874217680542       -1.11167681760927
H            9.42204735640600        2.86929858908318        0.14582034693254
H            9.90651747898747        0.66413327510653        1.15166295812054
H            8.27692911721853       -1.17942618034400        0.92141529131481
H            4.07078237444959       -2.86374413771576       -1.05319726024525
H            1.65120788497923       -2.59464549304839       -0.96834621868330
H            0.25432053967976        1.06242380025064        1.48963638076687
H           -2.15255521002114        1.35650716049000        1.53144557987069
H           -3.03161426820553        2.77399420784637       -0.13448787080331
H           -4.63118334813740        4.64617421098812       -0.10811048087598
H           -7.04510946484543        4.24486267768118        0.01970497574151
H           -7.94131166211467        1.94104014518269        0.08985853432072
H           -8.26081196409332       -0.79031474657253        0.15185765833035
H           -7.91877065051728       -3.23932126120675        0.19831803303949
H           -5.65972338098854       -4.18824841613722        0.21107344771009
H           -3.67179661061874       -2.73754464177783        0.14151579643486
H           -2.57784890647927       -1.55648853484129       -1.58202330457749
H           -0.17018179471154       -1.84689447137010       -1.64944202887103
H            2.18959755497123        1.30323673440104        0.78911526018395
H            4.58128780078377        1.00724703240899        0.71091182073021
