54
 energy: -84.036114566885 gnorm: 0.000045277281 xtb: 6.7.1 (edcfbbe)
O            6.43223387608178       -2.07972739423597        0.98116620608681
C            5.95248249067166       -1.03707882087412        0.46203559730355
C            6.87231949479030        0.01263097334981       -0.02845436280174
C            6.63690166246619        0.70239237740737       -1.21942262267012
C            7.54085102538702        1.64799849370790       -1.66518856556265
C            8.69091572238301        1.91733845657541       -0.93869653912534
C            8.94566472443624        1.21624714639040        0.23017208380285
C            8.05074730997835        0.26431136055765        0.67710391916861
C            4.53249994829696       -0.83528433553606        0.36044869810516
C            3.66506609247098       -1.93770669711735        0.58370224024987
C            2.31190808454828       -1.80521008803613        0.51794728347904
C            1.69704334871468       -0.55513020676743        0.23378529649332
C            0.27802402382410       -0.40807866536462        0.15905665631510
C           -0.32504023851889        0.67306515652036       -0.53619499298438
C           -1.68247783338764        0.82763857718730       -0.59327298893615
C           -2.53694556362034       -0.09624376651767        0.03452337628853
N           -3.91364672541785        0.06431734729067       -0.01495948553093
C           -4.83772955010649       -0.93084696533232       -0.27655312015510
C           -4.63207964467728       -2.26225167812879       -0.61782746513483
C           -5.74600243933619       -3.04471206478220       -0.86654881038316
C           -7.03299682735107       -2.51880121411821       -0.79567320716243
C           -7.24293800999538       -1.18260008202909       -0.49227221464378
C           -6.14231727071846       -0.38196209648871       -0.23648447183160
C           -5.98715377023049        1.01760533583077        0.07171284108053
C           -6.88536277188922        2.05384329402965        0.26461278833539
C           -6.39011549756147        3.30693905787457        0.59029127123029
C           -5.02316612424294        3.51991801180671        0.74517241804042
C           -4.10818655818618        2.49847375789573        0.55971902156644
C           -4.59584574638730        1.24880813149176        0.19645459044503
C           -1.96309751420338       -1.18401585108277        0.71677036395518
C           -0.60494871412114       -1.33045560176965        0.77920862098808
C            2.57109627679755        0.55238711975570        0.05765704727424
C            3.92631714995908        0.42664949391012        0.13714646263198
H            5.76014836863939        0.47290665332270       -1.80761512012564
H            7.35045727112611        2.17355915606123       -2.59009770632712
H            9.39166890029176        2.66111168905640       -1.28861005743781
H            9.84650022458940        1.41063932887235        0.79456810952934
H            8.24073738842435       -0.29428808804855        1.58278550821078
H            4.12273910803572       -2.89669859649930        0.78239364386184
H            1.69829171087188       -2.68460603128455        0.64163941576922
H            0.30007790415286        1.36565394095951       -1.07665393184099
H           -2.11244050967170        1.63127483400798       -1.17240962131037
H           -3.63900110902752       -2.67397905807981       -0.70469001860767
H           -5.61204144800463       -4.08344683646203       -1.12828869027316
H           -7.87801558445381       -3.16048074984568       -0.99498874400225
H           -8.24045314857111       -0.77228808775693       -0.46230236075259
H           -7.94706530094946        1.88614272432416        0.16999579050286
H           -7.07395597898270        4.12849288356431        0.74167728659098
H           -4.66814141592450        4.50087599494872        1.02287351381310
H           -3.05402910370686        2.66883059371353        0.71128996278502
H           -2.60602016051942       -1.87171433352019        1.24552245083668
H           -0.19660832875927       -2.14127844895604        1.36083910845742
H            2.15177280653387        1.53683695557180       -0.08577556837491
H            4.54991815991453        1.30487352799629        0.05966934492658
