54
 energy: -84.122152032577 gnorm: 0.000064020014 xtb: 6.7.1 (edcfbbe)
O            6.39471206862527       -2.32545763673668        1.18068608668945
C            5.95887059323097       -1.31992043244919        0.63714052792296
C            6.86937680874118       -0.28772918038330        0.08417271201128
C            6.56001050481514        0.41386177467639       -1.08039206930486
C            7.45073974986698        1.34416800542181       -1.58437476070402
C            8.64847928841143        1.58972211162844       -0.93109560902849
C            8.96727226208787        0.88772665408262        0.22104794094196
C            8.08817295313020       -0.05475807907884        0.71984588730555
C            4.50393709403307       -1.08316905605649        0.50561779218561
C            3.64576071222259       -2.18016459112000        0.41963414514717
C            2.28237065715990       -1.99997839257640        0.32121203449638
C            1.73388165661619       -0.71674673364701        0.32269091789839
C            0.28160676854193       -0.51931868430304        0.22663228598610
C           -0.59738293776974       -1.34609103616810        0.92526265256616
C           -1.96170199525219       -1.14960259405301        0.85517987175660
C           -2.48237078430086       -0.12860328278797        0.06378414619284
N           -3.86744464361988        0.07381642459238       -0.00954910285199
C           -4.51869189492295        1.27617942372298        0.18657970474637
C           -4.00007789430274        2.51817247829215        0.52586410014065
C           -4.88673517997931        3.56510272729007        0.69198348099425
C           -6.25998238075590        3.38787593186206        0.53434879679020
C           -6.78401866533010        2.14962571358077        0.21984653962023
C           -5.91264471811618        1.08146310461931        0.04792494862897
C           -6.10222584064716       -0.31033791887537       -0.25328345245596
C           -7.22364635185270       -1.08813276927646       -0.51266306575638
C           -7.04884375152450       -2.42818524118799       -0.79632560086081
C           -5.77468067658047       -2.99108811103772       -0.83802103935213
C           -4.64422311269082       -2.23801557880817       -0.58359663800663
C           -4.81494930578760       -0.89567684267088       -0.27445974016913
C           -1.61278936064259        0.69246511319956       -0.64996019403312
C           -0.24858713550925        0.50308304107973       -0.55940316176527
C            2.59325752396238        0.37755356187516        0.43007455416778
C            3.95891364646223        0.20114010210386        0.51957319059914
H            5.63523052078927        0.21104273998089       -1.60014819321944
H            7.21006523332566        1.88044868196490       -2.49043023580484
H            9.33699250499757        2.32317736675208       -1.32403360954105
H            9.90340692285106        1.07145542617733        0.72723617728175
H            8.32246536235978       -0.61671238358251        1.61269031071328
H            4.07433874640971       -3.17223167042053        0.41947572480051
H            1.63461946901375       -2.85870501145416        0.22666153689374
H           -0.20531780856258       -2.12896991770350        1.55727742443617
H           -2.63201105568282       -1.77479619800696        1.42602611757977
H           -2.93980712373710        2.66311550394290        0.66768080092446
H           -4.50696841346447        4.54227792217391        0.95323774882427
H           -6.92069069417313        4.23163029364397        0.67048767028262
H           -7.84944739456073        2.00900690112008        0.11355884461482
H           -8.21000867985124       -0.64879489958293       -0.49604056411594
H           -7.90809374588763       -3.05081663587273       -0.99889788477452
H           -5.66806052718943       -4.03904798310143       -1.07821300962691
H           -3.66089935020059       -2.68058569624922       -0.63527364607722
H           -2.01447875757188        1.46903195528201       -1.28370152742055
H            0.41454578408513        1.13672785568696       -1.12922500950766
H            2.18155128564439        1.37514511317948        0.46670894902970
H            4.60620106303709        1.05861762924728        0.62893849222123
