54
 energy: -84.122157174493 gnorm: 0.000100276489 xtb: 6.7.1 (edcfbbe)
O            6.44588219396429       -2.22864987534028        0.63411982135106
C            5.97409326025686       -1.14923300611555        0.30451102160944
C            6.84576413824725       -0.00953187903708       -0.07081749835436
C            6.47533446757283        0.90112880224149       -1.05962450294143
C            7.33090381242594        1.93085507153462       -1.40658082442871
C            8.55390698686139        2.06786074167949       -0.76846510135087
C            8.93341990672610        1.15917048952570        0.20737200518162
C            8.08941836393071        0.11872356476236        0.54630658882739
C            4.51167363964707       -0.92677411135772        0.25974574411280
C            3.67363085187701       -2.00063268310681       -0.04245090348829
C            2.30618712909282       -1.83235135550410       -0.08901798447508
C            1.73276761762453       -0.59231695530139        0.19659386526802
C            0.27576418486565       -0.41390588946738        0.14708585983994
C           -0.38607863753859        0.34908355958120        1.10848547350563
C           -1.75685645485790        0.50665050284632        1.06773805796616
C           -2.49950045864464       -0.08284777236156        0.04763060707852
N           -3.89123732301126        0.07840237712292       -0.00107480028276
C           -4.57126335649497        1.27849913800749        0.07016039979603
C           -4.07585156814166        2.57285300275810        0.14651792047797
C           -4.98616493619311        3.61223716296764        0.17593524321862
C           -6.35902941389501        3.37917837608536        0.12184866705669
C           -6.85740097068630        2.09522033321845        0.02277289063333
C           -5.96196840024549        1.03370750587772       -0.00928959721698
C           -6.11984562940551       -0.38929033018879       -0.12702297646633
C           -7.22639651956288       -1.22384739698297       -0.22194982931451
C           -7.02263431177418       -2.58725787692191       -0.30144311837133
C           -5.73596043070057       -3.12183451729739       -0.27276881174651
C           -4.61988918510880       -2.31229432486252       -0.17888306332790
C           -4.81710148456156       -0.93954930596774       -0.12213726641544
C           -1.84586807201059       -0.83730590346159       -0.92360834824160
C           -0.47738006726484       -1.00612000515047       -0.86626071428277
C            2.57200548445368        0.47084110535255        0.53222735512751
C            3.94259902995292        0.31175634105731        0.55731379379522
H            5.53036162320078        0.78550931511264       -1.56962739149690
H            7.04271327538035        2.63014729922403       -2.17749935961718
H            9.21468989464021        2.87886194629421       -1.03691039451759
H            9.88937899774500        1.25905598253962        0.69976423698135
H            8.37073073894223       -0.60424015553959        1.29865916321442
H            4.12070765935715       -2.96215090844219       -0.25090644748795
H            1.67113830153344       -2.67357342058127       -0.32357129094219
H            0.17535500320656        0.79563909761092        1.91548523391114
H           -2.26302170141425        1.07477562265877        1.83397844731931
H           -3.01405302380198        2.76592630336177        0.17183833236143
H           -4.62549925594595        4.62877480641761        0.23795677974565
H           -7.03893642956875        4.21815842411354        0.14989995012892
H           -7.92074519226975        1.91578892851896       -0.03453049713756
H           -8.22419768797061       -0.81087115693152       -0.22847042706126
H           -7.86958782865311       -3.25342450485307       -0.37789122365759
H           -5.60816263498607       -4.19356376463597       -0.32095442720045
H           -3.62873341546248       -2.73834291331225       -0.13961323724045
H           -2.41581737532300       -1.27642409994194       -1.72879773712554
H            0.01954236745657       -1.57870050134942       -1.63518960317385
H            2.14400934874150        1.43694437215962        0.75464149697704
H            4.57693704305920        1.14236748530071        0.82937684634155
