  120
       -173.90076787
 C         -2.6122481699       -5.8354094245        1.2500511428
 C         -1.4590297593       -4.9275134879        0.9407937399
 C         -0.1595639361       -5.4213045086        0.8613691841
 C          0.9146465606       -4.5969187613        0.5832332541
 C          0.6760087064       -3.2528051194        0.3354897129
 C         -0.6388208472       -2.7269562034        0.4273578108
 C         -1.6871796168       -3.5747854439        0.7484378989
 C         -0.5394944698       -1.2975259226        0.2563009084
 C         -1.4368792899       -0.2299608325        0.1729976769
 C         -0.8486029990        1.0245261723        0.1544720966
 C          0.5409182673        1.2942856754        0.2554202928
 C          1.4383120253        0.2264837648        0.1754096668
 C          0.8503709016       -1.0281145512        0.1579367505
 N          1.5588150426       -2.2161074802        0.1117455616
 C          2.8779385401       -2.2083961555       -0.3122281200
 C          3.5102814553       -3.3429132193       -0.8126774435
 C          4.8321236028       -3.3107306372       -1.2126607843
 C          5.5699343946       -2.1378790458       -1.1398847632
 C          7.0309726293       -2.0347818146       -1.5415664833
 C          7.6194888820       -3.3842806269       -1.9601559495
 C          7.1534380316       -1.0646827102       -2.7250870038
 C          7.8436567358       -1.5054268621       -0.3519033121
 C          4.9075031706       -0.9971726696       -0.7034207468
 C          3.5794377988       -0.9983164538       -0.3130272735
 C          2.9411013038        0.3231483324        0.1156241969
 C          3.6114974462        0.7048366663        1.4200924083
 C          3.4512808081        0.1413866602        2.6655643666
 C          4.2350343607        0.6130512647        3.7109174622
 C          5.1669804400        1.6180601169        3.5031666168
 C          5.3321647914        2.1875172547        2.2500283903
 C          4.5473271721        1.7286983237        1.2060451250
 C          4.4494907264        2.1624144096       -0.1825229452
 C          5.1108604165        3.1622603510       -0.8742956679
 C          4.7589452833        3.3966966572       -2.1948519134
 C          3.7661402627        2.6507972463       -2.8102649907
 C          3.1082844519        1.6372900731       -2.1245048831
 C          3.4528047771        1.4007426687       -0.8140109022
 C          0.6397169215        2.7238549483        0.4251287954
 C          1.6873856331        3.5722820465        0.7494768781
 C          1.4579052440        4.9239014552        0.9429210278
 C          2.6045402760        5.8390365782        1.2545400152
 C          0.1577872602        5.4175356658        0.8592227123
 C         -0.9148056878        4.5935222112        0.5767537626
 C         -0.6745822914        3.2492392988        0.3294322240
 N         -1.5567338165        2.2124089828        0.1046054335
 C         -2.8740976501        2.2042456718       -0.3242045605
 C         -3.5033621216        3.3376680105       -0.8308829424
 C         -4.8245081382        3.3058005425       -1.2328304787
 C         -5.5644279436        2.1345782927       -1.1552380998
 C         -7.0282799987        2.0350311806       -1.5474202886
 C         -7.8361488221        1.5500465162       -0.3356243394
 C         -7.6053251953        3.3776384634       -2.0024187147
 C         -7.1719102622        1.0321172152       -2.7007441233
 C         -4.9044584670        0.9943772083       -0.7135167935
 C         -3.5765963736        0.9948653492       -0.3225065276
 C         -2.9398997622       -0.3252412352        0.1131744429
 C         -3.6115168105       -0.6963869798        1.4201146938
 C         -3.4527240906       -0.1224355244        2.6610164721
 C         -4.2400166381       -0.5830266332        3.7085864222
 C         -5.1738225536       -1.5877478794        3.5075409714
 C         -5.3374023882       -2.1678746389        2.2591438014
 C         -4.5493023999       -1.7197566225        1.2129365083
 C         -4.4516486973       -2.1636532856       -0.1723251721
 C         -5.1141055140       -3.1678878912       -0.8567790386
 C         -4.7618315813       -3.4129801667       -2.1753111310
 C         -3.7677528922       -2.6730442973       -2.7958943003
 C         -3.1090407870       -1.6549828117       -2.1176781074
 C         -3.4537253773       -1.4079497923       -0.8091731341
 H         -2.2683915098       -6.7769264868        1.6712290306
 H         -3.2938462607       -5.3612571285        1.9536743998
 H         -3.1710212101       -6.0512748040        0.3386722310
 H          0.0209122059       -6.4697850067        1.0506162265
 H          1.9128894784       -5.0018424830        0.6118185013
 H         -2.6800095449       -3.1933416056        0.8858702884
 H          2.9546371018       -4.2577796425       -0.9243599286
 H          5.2698927318       -4.2207629330       -1.5878021441
 H          7.1087351911       -3.7784455038       -2.8351819548
 H          7.5491359702       -4.1064287009       -1.1503503258
 H          8.6704985297       -3.2602039057       -2.2121509933
 H          8.1922275060       -0.9831140423       -3.0376507852
 H          6.7953821759       -0.0735802756       -2.4609115096
 H          6.5660728277       -1.4248559347       -3.5670280035
 H          8.8964856870       -1.4391522041       -0.6174747755
 H          7.7431843661       -2.1755193405        0.4992158482
 H          7.5055676068       -0.5188179733       -0.0491656236
 H          5.4458931102       -0.0644125683       -0.6710214867
 H          2.7287782520       -0.6452775696        2.8282217836
 H          4.1185867002        0.1900920320        4.6978297508
 H          5.7692514260        1.9649001876        4.3299339187
 H          6.0557418747        2.9746369192        2.0949725624
 H          5.8810496846        3.7508967069       -0.3976683544
 H          5.2623158951        4.1743211120       -2.7504941973
 H          3.5037405051        2.8579202509       -3.8372986948
 H          2.3401127659        1.0513289035       -2.6079151458
 H          2.6794662918        3.1897197556        0.8890930944
 H          3.3797298079        5.3089050356        1.8035031839
 H          3.0442984283        6.2132892364        0.3291131520
 H          2.2752633836        6.6930670521        1.8418783422
 H         -0.0226041778        6.4658239957        1.0494535579
 H         -1.9135676723        4.9973786374        0.6024147532
 H         -2.9457838940        4.2510306740       -0.9450598631
 H         -5.2603654312        4.2148361880       -1.6125041354
 H         -8.8911086540        1.4808526401       -0.5915301167
 H         -7.4998776240        0.5723111844       -0.0027416040
 H         -7.7258454915        2.2473851111        0.4919770660
 H         -7.5326584104        4.1201433310       -1.2114370729
 H         -7.0882316738        3.7450241857       -2.8854511753
 H         -8.6564524931        3.2549182007       -2.2548452265
 H         -8.2142568773        0.9553678624       -3.0029517890
 H         -6.5868546861        1.3597513247       -3.5575212960
 H         -6.8255835443        0.0442093033       -2.4110268435
 H         -5.4449801952        0.0630289964       -0.6760111772
 H         -2.7288862474        0.6640712131        2.8184531460
 H         -4.1254515711       -0.1511233748        4.6918252686
 H         -5.7791903915       -1.9254140565        4.3359440174
 H         -6.0623299547       -2.9546774299        2.1091714767
 H         -5.8849066976       -3.7520919902       -0.3756498587
 H         -5.2657565003       -4.1943653437       -2.7252632019
 H         -3.5049075320       -2.8886604387       -3.8209952375
 H         -2.3398176953       -1.0739086590       -2.6052782600
