  44
  -76.2729145266000       0.487509307056181      !
 O          4.4696058055       -1.3851082471       -1.7432414114
 S          3.9970259203       -0.1088575278       -1.2521436282
 O          4.4995797581        1.0564985288       -1.9464035574
 C          4.1908172885        0.0345431355        0.5207198498
 C          5.3551110135        0.0853581670        1.2443289037
 C          5.2772106569        0.1997468646        2.6275776298
 C          4.0323993411        0.2607951342        3.2501866017
 C          2.8637818264        0.2087239804        2.5201487652
 C          2.9227366845        0.0927950974        1.1253319983
 C          1.8245914480        0.0249236437        0.2013316504
 C          0.4552551997        0.0505262899        0.4956937829
 C         -0.4560426986       -0.0263727544       -0.5369863828
 N         -1.8577819987       -0.0091321386       -0.2355262202
 C         -2.4652784343        1.2165705835       -0.1588269996
 C         -1.7262477625        2.3909456801       -0.3938830855
 C         -2.3013241521        3.6318493929       -0.3103167547
 C         -3.6657049534        3.7687411458        0.0213082572
 C         -4.4171311518        2.6474016924        0.2517531574
 C         -3.8508652035        1.3709996179        0.1657455086
 S         -4.8967612769        0.0257903711        0.4691311513
 C         -3.8564542381       -1.3441174567        0.2758792696
 C         -4.4290460298       -2.6067764088        0.4629705517
 C         -3.6800259205       -3.7460512365        0.3353539976
 C         -2.3105858406       -3.6417535521        0.0138838488
 C         -1.7299035747       -2.4141994123       -0.1692240272
 C         -2.4683592021       -1.2220460444       -0.0508579212
 C         -0.0604649158       -0.1267947599       -1.8777024984
 C          1.2987836666       -0.1554013955       -2.1758111375
 C          2.2072962621       -0.0823864926       -1.1543616286
 H          6.3061945185        0.0365993072        0.7369982711
 H          6.1792564978        0.2415201426        3.2173252823
 H          3.9839726466        0.3505741302        4.3255364165
 H          1.9084758505        0.2576208803        3.0205351435
 H          0.1083915558        0.1273787360        1.5148093951
 H         -0.6818711202        2.3031875738       -0.6476996812
 H         -1.7055510313        4.5101339288       -0.4987888681
 H         -4.1090902435        4.7485986250        0.0887257739
 H         -5.4645374855        2.7213620789        0.5033261831
 H         -5.4789032135       -2.6560091985        0.7102077201
 H         -4.1285586794       -4.7152706688        0.4789972311
 H         -1.7149732297       -4.5343523673       -0.0881835725
 H         -0.6810359047       -2.3522205204       -0.4112069165
 H         -0.8050707963       -0.1828909720       -2.6550111856
 H          1.6382247388       -0.2350484735       -3.1964267939
  44
  -76.2721991383000       0.228672116742781      !
 O          4.4463325721       -1.0827662026       -1.9781941163
 S          4.0041615266        0.0823170512       -1.2434503711
 O          4.5492227353        1.3477206011       -1.6845814757
 C          4.1787170124       -0.1356114161        0.5238422864
 C          5.3324097205       -0.3014239008        1.2475027772
 C          5.2394881891       -0.4616888188        2.6252060190
 C          3.9909715175       -0.4476569231        3.2432771958
 C          2.8330376778       -0.2824512513        2.5130905855
 C          2.9068614692       -0.1254728842        1.1230162784
 C          1.8195019896        0.0263890370        0.1963317749
 C          0.4489122329        0.0328057321        0.4805547517
 C         -0.4557543782        0.1388754129       -0.5564226691
 N         -1.8556661244        0.0861252495       -0.2619128051
 C         -2.5608787813        1.2614633005       -0.3081475102
 C         -1.9175184154        2.4662170332       -0.6451917131
 C         -2.6051003254        3.6487661727       -0.7365583364
 C         -3.9900754911        3.6944681353       -0.4765550131
 C         -4.6408215353        2.5492282104       -0.1030519320
 C         -3.9574120907        1.3319264094       -0.0051178781
 S         -4.8617950158       -0.0274732243        0.5698183094
 C         -3.7211262944       -1.3266063535        0.4944632528
 C         -4.1739333679       -2.5921930071        0.8819274466
 C         -3.3535210747       -3.6863046517        0.8125791367
 C         -2.0393754773       -3.5339366572        0.3226342961
 C         -1.5712257904       -2.2998381672       -0.0435089740
 C         -2.3718497546       -1.1454708099        0.0519114620
 C         -0.0463397994        0.2562647341       -1.8928813811
 C          1.3151176647        0.2607987999       -2.1804915503
 C          2.2153589489        0.1460894423       -1.1551520351
 H          6.2868818583       -0.3073127924        0.7442596591
 H          6.1327680563       -0.5959564167        3.2145257726
 H          3.9310368178       -0.5699940144        4.3148187195
 H          1.8743937524       -0.2769633490        3.0094236105
 H          0.0937356066       -0.0600830802        1.4955695210
 H         -0.8571868615        2.4514703514       -0.8401503861
 H         -2.0809944131        4.5514068966       -1.0056079183
 H         -4.5247535239        4.6265847293       -0.5578026957
 H         -5.6954502080        2.5577650792        0.1280150370
 H         -5.1918690944       -2.6811021436        1.2305780174
 H         -3.7082603559       -4.6580077446        1.1144602271
 H         -1.3975725832       -4.3953835797        0.2339142345
 H         -0.5651758138       -2.2044296171       -0.4191175323
 H         -0.7832282582        0.3301820346       -2.6761839608
 H          1.6631997808        0.3448569539       -3.1979280077
  44
  -76.2719136230000       0.169043884922082      !
 O          4.4421726733       -0.8050236457       -2.1046641538
 S          4.0131568121        0.2449513282       -1.2068553262
 O          4.5729089454        1.5551265994       -1.4580270841
 C          4.1832339689       -0.2325211721        0.5091116311
 C          5.3310231287       -0.5476946734        1.1913091791
 C          5.2333863828       -0.9189033221        2.5273394312
 C          3.9864570754       -0.9595427595        3.1475702726
 C          2.8345966289       -0.6415448835        2.4596622694
 C          2.9129148041       -0.2725893558        1.1105043449
 C          1.8288171994        0.0330616129        0.2188039303
 C          0.4598503489        0.0247268288        0.5059800896
 C         -0.4500911454        0.2416960800       -0.5109100910
 N         -1.8462485267        0.1421932230       -0.2278979768
 C         -2.6121176013        1.2739895067       -0.3662579701
 C         -2.0170774532        2.5066260567       -0.6930958292
 C         -2.7676223562        3.6298589339       -0.9277019543
 C         -4.1727965085        3.5861538125       -0.8308510245
 C         -4.7805394863        2.4229511013       -0.4399597060
 C         -4.0304087176        1.2703031054       -0.1817835350
 S         -4.8906623313       -0.0927581701        0.4493271679
 C         -3.6605547779       -1.3011044472        0.5981043947
 C         -4.0507938393       -2.5404101449        1.1158958534
 C         -3.1762775893       -3.5932141170        1.1606231725
 C         -1.8802372695       -3.4330624708        0.6276473663
 C         -1.4729298838       -2.2207173483        0.1380545018
 C         -2.3151993380       -1.0914533749        0.1552985820
 C         -0.0378342625        0.5022785008       -1.8280087935
 C          1.3228419328        0.5459727160       -2.1127929992
 C          2.2252371268        0.3141642399       -1.1089320655
 H          6.2840025601       -0.5109277545        0.6865742757
 H          6.1215297294       -1.1777029835        3.0818611355
 H          3.9224626513       -1.2508581979        4.1857830429
 H          1.8765808605       -0.6844569505        2.9555363935
 H          0.1078340419       -0.1722571904        1.5072289592
 H         -0.9427531897        2.5632025620       -0.7634014480
 H         -2.2774863640        4.5549388534       -1.1842374012
 H         -4.7574426905        4.4677358834       -1.0363479450
 H         -5.8512296237        2.3693501244       -0.3118003889
 H         -5.0657794625       -2.6447011141        1.4688697702
 H         -3.4796041974       -4.5426386391        1.5699081235
 H         -1.2040272962       -4.2720844635        0.6011773508
 H         -0.4807425208       -2.1247899248       -0.2720872664
 H         -0.7735479824        0.6498920025       -2.6020121134
 H          1.6694144675        0.7452649867       -3.1145595204
  44
  -76.2715477288000       0.114774691278955      !
 O          4.4410834824       -0.9160335612       -2.0634604431
 S          4.0085400562        0.1809816389       -1.2255972730
 O          4.5618741252        1.4772400208       -1.5520358389
 C          4.1839033846       -0.1961464450        0.5145191554
 C          5.3353248541       -0.4571170647        1.2132133816
 C          5.2425533398       -0.7455842665        2.5698744098
 C          3.9966102611       -0.7597725858        3.1932408485
 C          2.8409630458       -0.4977214976        2.4883341055
 C          2.9143663474       -0.2125708893        1.1187159944
 C          1.8270567732        0.0337199978        0.2126676208
 C          0.4577780775        0.0318013714        0.5013371462
 C         -0.4517149593        0.2034751957       -0.5236641504
 N         -1.8494084592        0.1215526685       -0.2344596867
 C         -2.5928987162        1.2705393501       -0.3414646152
 C         -1.9774371401        2.4921147695       -0.6713584927
 C         -2.7046366181        3.6405884129       -0.8502230694
 C         -4.1050383732        3.6345445884       -0.6904989325
 C         -4.7306470125        2.4776569908       -0.3095632860
 C         -4.0050699425        1.2970642988       -0.1151443160
 S         -4.8854560367       -0.0685251768        0.4816328693
 C         -3.6866686168       -1.3146459418        0.5504159015
 C         -4.1039553652       -2.5684025966        1.0093120095
 C         -3.2475947479       -3.6368033892        1.0196883576
 C         -1.9375296790       -3.4735618383        0.5231901455
 C         -1.5048636114       -2.2493584913        0.0873357551
 C         -2.3355009053       -1.1122658078        0.1226754749
 C         -0.0433542215        0.4051265067       -1.8513862986
 C          1.3171135630        0.4324555135       -2.1407175392
 C          2.2204795039        0.2489747564       -1.1279994860
 H          6.2876324382       -0.4404326075        0.7061387603
 H          6.1338876920       -0.9581209061        3.1387326095
 H          3.9366662890       -0.9845532534        4.2480851033
 H          1.8840305199       -0.5178645306        2.9876491967
 H          0.1062363313       -0.1224078448        1.5102062046
 H         -0.9061057435        2.5191864027       -0.7892769435
 H         -2.1998416250        4.5563020040       -1.1120146944
 H         -4.6715755892        4.5376931776       -0.8477449648
 H         -5.7971896632        2.4492700680       -0.1439707578
 H         -5.1245731863       -2.6699386147        1.3465120451
 H         -3.5734578225       -4.5985549238        1.3800279997
 H         -1.2706345590       -4.3194121189        0.4822278315
 H         -0.5023530815       -2.1502641265       -0.2960408876
 H         -0.7812608460        0.5222057534       -2.6284933836
 H          1.6623137422        0.5841298134       -3.1512347615
