89
 energy: -135.052051725558 gnorm: 0.000036877952 xtb: 6.7.1 (edcfbbe)
C           -5.99963194321684       -2.76063520228170       -0.89801131460635
C           -5.22904377606955       -2.43760540363562        0.39524998133889
C           -6.20940746462393       -2.26166884037597        1.56941960865331
C           -4.30527806412396       -3.59919076434257        0.71194013674903
C           -4.83716444482489       -4.86424308138453        0.92060813882034
C           -4.04243281296019       -5.95282770305243        1.23001604116435
C           -2.67448456414605       -5.78347473893807        1.34895976002924
C           -2.11881988413621       -4.53808142269676        1.14756818616445
C           -2.91981500974874       -3.44194752930595        0.81646321732092
N           -2.33081763899738       -2.20631217707639        0.62282328788908
C           -0.91963706590421       -2.05970590719617        0.65559419497376
C           -0.14329608510601       -2.46587414438131       -0.42396472583959
C            1.19290057538317       -2.12189529391138       -0.47774376793830
C            1.76192576079088       -1.34762636431031        0.53012707633113
C            3.11603270881202       -0.80981874153883        0.35098920290724
C            3.41468457224013        0.49436448301414        0.74353154810161
C            4.69047203728152        0.96976651554646        0.44441318119187
C            5.10770814366294        2.34748958719981        0.73442817394663
C            6.13628955650487        2.91590918649948       -0.01525062419736
C            6.53511233735985        4.21798576207758        0.21554017214429
C            5.91718117420794        4.96917460806162        1.20251771991672
C            4.90285821252794        4.40849410668919        1.96121727913953
C            4.49768200712829        3.10682939723066        1.73072163661409
N            5.58031450182586        0.18838968883759       -0.16342799673742
C            5.21675680805976       -1.04749514874374       -0.48481684706893
C            6.21080259974482       -1.89609928943262       -1.14749328192545
C            7.49747082175162       -1.41712525163912       -1.38527033839325
C            8.43110686925094       -2.21960439447600       -2.01182100118079
C            8.09191027031821       -3.50439969161213       -2.40620560297167
C            6.81426868785527       -3.98707267251994       -2.16982809027869
C            5.87628100529033       -3.18963250680906       -1.54334194448580
N            4.01309574581333       -1.57005213418986       -0.26551288533984
C            1.00330592060582       -1.02387673762670        1.65235463989529
C           -0.32520736393924       -1.38984379942800        1.72110370264155
C           -3.06924475901514       -1.07489447569079        0.30195220937290
C           -2.39218579477074        0.12259294641922        0.07196418440537
C           -3.11490280797328        1.25283554273547       -0.24329615690174
C           -4.52065942909938        1.22002374426312       -0.32160968099557
C           -5.17738344807582        0.01605203351790       -0.10966260972483
C           -4.47109987229005       -1.13683942118037        0.19338888073345
C           -4.94012506689155        2.56166195967302       -0.61464035011132
C           -6.17767722591950        3.15320169226563       -0.82726359116925
C           -6.22758079020823        4.50354883021089       -1.11378558449316
C           -5.06269813818657        5.26046169191264       -1.20316340421371
C           -3.81778249199662        4.69477350156082       -0.99614268484554
C           -3.76241793251022        3.34516832380277       -0.68628246384350
N           -2.66161095183855        2.53798848671226       -0.46536145581765
C           -1.32042547393401        2.93290131827667       -0.38153049965666
C           -0.33785019530126        2.21648296759602       -1.06225577918718
C            0.99300002885877        2.56716095424623       -0.93173527610982
C            1.35897094238916        3.64290494709485       -0.13932452075930
C            0.38230857555002        4.36949388199290        0.52193375920960
C           -0.95022777011563        4.01702115123935        0.41005752088970
H           -5.30075675777536       -2.88607005191842       -1.72299292700782
H           -6.68697845247950       -1.95828955698275       -1.15106029708587
H           -6.57201300721619       -3.67787688120938       -0.79106751630927
H           -6.78432447462425       -3.16863083488529        1.73486342332113
H           -5.65816873486197       -2.03382263697495        2.47988280408256
H           -6.90373268706535       -1.44857366256931        1.37679689532300
H           -5.90376263411672       -5.01194390546880        0.84240114604311
H           -4.48991466097466       -6.92297313441260        1.38372562797876
H           -2.03865942607011       -6.61887772787332        1.60174434086391
H           -1.05263610869508       -4.40191429532025        1.25102459153167
H           -0.60433178399079       -3.01515395257224       -1.23156988314790
H            1.80110663170016       -2.40029621306274       -1.32453158522999
H            2.66296210760517        1.12127317039875        1.19321242589472
H            6.60555186912344        2.31836038412514       -0.78126134958547
H            7.32937911810630        4.65086451264269       -0.37469303969412
H            6.22758962526170        5.98767809548950        1.38353197122450
H            4.42543714007829        4.98834580778772        2.73777489852742
H            3.71729643256396        2.67818818631412        2.34186857143240
H            7.74596941618389       -0.41643921877979       -1.06824133017671
H            9.42807830462154       -1.84547015584302       -2.19426341699484
H            8.82377694769143       -4.13000619008990       -2.89628220167289
H            6.55175924325809       -4.98944805076583       -2.47570331569626
H            4.87835340499482       -3.55010428902135       -1.34860128365281
H            1.45232492120237       -0.47836275141307        2.46915299300216
H           -0.92905852563130       -1.11316616666483        2.57266335750762
H           -1.32031300359713        0.17760795466291        0.14866656406774
H           -6.25357070092906       -0.00810237888773       -0.18151108855017
H           -7.08117069943113        2.56440649056365       -0.77315502768489
H           -7.18164390295961        4.98150114809996       -1.28032693615954
H           -5.13167211595500        6.31134242887593       -1.44306550804376
H           -2.91818448196774        5.28541593777112       -1.08518235986618
H           -0.62394393422160        1.39472069840052       -1.70132745606466
H            1.74880147087001        2.00094023978381       -1.45670310083725
H            2.39991208606175        3.91364500430657       -0.03933677168435
H            0.66183631510013        5.21030573337486        1.13972773788506
H           -1.70882853920435        4.56609779132272        0.94769808473488
