89
 energy: -134.980830048116 gnorm: 0.000051837758 xtb: 6.7.1 (edcfbbe)
C           -6.32252942665504        2.10584052605011        1.67660652474357
C           -5.48828456006394        2.31377744296293        0.39861382436972
C           -6.41414252126057        2.58498478496959       -0.80223363444118
C           -4.59230528509150        3.51883381132220        0.60481628703415
C           -5.15569889704229        4.76011699432464        0.86568747740083
C           -4.38098609133622        5.88221159303700        1.09704887727477
C           -2.99957296562409        5.77334050287472        1.08614793813219
C           -2.41171247691435        4.55569741779940        0.82783111380724
C           -3.19389761858993        3.42312980453607        0.56847261949858
N           -2.57539688035335        2.22405232634187        0.29350250038672
C           -1.15679097698718        2.10638444618131        0.33244628294123
C           -0.55939179319993        1.40701857225159        1.38540417776526
C            0.77410722603306        1.09947463876074        1.33933085176783
C            1.57871310787943        1.48359978878019        0.24328153499215
C            2.93262444865419        1.02944341102820        0.18716392995360
C            3.89429276643949        1.47061248703567       -0.73676874728552
C            5.16365785239731        0.92354588666430       -0.69081806529046
C            6.25525865259979        1.29995934482384       -1.56529772470667
C            7.48478846204797        0.63480937340423       -1.44222913309153
C            8.55232730982804        0.95820039696056       -2.25027274415280
C            8.42990613725135        1.95479633366215       -3.20719262867410
C            7.22170614456051        2.62264487333687       -3.34140694548850
C            6.14853482485984        2.30454136727281       -2.53586099678995
N            5.42910565880442       -0.04474129317018        0.23910246271577
C            4.50482427497359       -0.44190607255906        1.09245532793648
C            4.83083049453448       -1.49187839024976        2.05884858034079
C            6.11925911670690       -2.01682961956661        2.11805745189399
C            6.42312968249191       -3.01242018267003        3.02630859665198
C            5.44556092121870       -3.49502809599195        3.88201315328944
C            4.16088616918537       -2.97723051880094        3.82808024324745
C            3.85361143489917       -1.98049377168295        2.92275902684710
N            3.30153856646576        0.07242647437238        1.09165664287579
C            0.97432775148759        2.25979754868016       -0.76591891144660
C           -0.36816687594611        2.55253146950102       -0.72718889221266
C           -3.28759813393755        1.07029269373006        0.04017042235295
C           -2.57526642370928       -0.08523638668936       -0.29629193120997
C           -3.25983258259387       -1.26935997838158       -0.44513912207347
C           -4.66917147204164       -1.31485835321999       -0.35114684604064
C           -5.36760094845486       -0.14273922772519       -0.08747815608737
C           -4.69734333438686        1.05011153563662        0.11891394355413
C           -5.04282088502199       -2.67565371674734       -0.59703465260807
C           -6.26157805518097       -3.34310708173645       -0.62730685625134
C           -6.26723989891936       -4.70070110191051       -0.87429292120781
C           -5.07713307809762       -5.39770897298487       -1.07476484832718
C           -3.85195429604881       -4.75810279912318       -1.04997999660894
C           -3.83882083449768       -3.38962523187511       -0.82669125800075
N           -2.76827891988193       -2.52352506612110       -0.73261758419941
C           -1.40457434058997       -2.82424705699598       -0.88545123680636
C           -0.48434840422350       -2.36798731327167        0.05567243787804
C            0.86573758527390       -2.60524076646790       -0.12249516140622
C            1.30656056309917       -3.32072648085718       -1.22337521978648
C            0.39131030945850       -3.79702633357996       -2.14728388553936
C           -0.95948232765294       -3.54423449464234       -1.98916003257350
H           -6.91932036361206        2.98610913110693        1.89814946380192
H           -5.66392561453763        1.91576904490371        2.52195521813751
H           -6.99284109869659        1.25816849213560        1.56676335968607
H           -7.01641771258415        3.47353803343540       -0.63574165159620
H           -5.81954627484825        2.73552602523045       -1.70126412359063
H           -7.08366685387791        1.74641349251376       -0.97085579232333
H           -6.22991740214552        4.86139244416299        0.89530217413759
H           -4.85282474880168        6.83251999953843        1.29442933085561
H           -2.38181865681751        6.63682751134400        1.28100152147291
H           -1.33691278181644        4.46207652839045        0.82757571506397
H           -1.17188303327797        1.08978894883093        2.21784312305682
H            1.23779950569598        0.54525873916801        2.14055419660217
H            3.64463808168962        2.23274916158205       -1.45481896373512
H            7.57527882117528       -0.14078599743808       -0.69704869431543
H            9.48975520454906        0.43216897340464       -2.13706723436318
H            9.26609382231698        2.20968535807078       -3.84114653095913
H            7.11849810805035        3.40168751849988       -4.08366750838744
H            5.22362244365983        2.84600619562749       -2.66285702875625
H            6.86983542686728       -1.63048324543825        1.44576780656742
H            7.42446959728537       -3.41546752317345        3.06977820786617
H            5.68459816470612       -4.27400713156357        4.59122605157213
H            3.39905075842552       -3.35378404131085        4.49518843173099
H            2.85794500843211       -1.56623323733364        2.87220973968647
H            1.55386027492288        2.59561324467593       -1.61136350643301
H           -0.83111147087104        3.10481131079254       -1.53276282144605
H           -1.50952594807155       -0.05050001144583       -0.44069403578173
H           -6.44478213199391       -0.17901943662296       -0.04130751576196
H           -7.18243390182508       -2.80610281414332       -0.45613856114335
H           -7.20390802315618       -5.23700044602602       -0.90462765087555
H           -5.11271701891181       -6.46270801500081       -1.25022581772240
H           -2.93478129435993       -5.31002786157245       -1.18861806397388
H           -0.83136811710095       -1.83232935182343        0.92615537333131
H            1.57671757663989       -2.22892562052546        0.59740699092575
H            2.36135582718418       -3.50481877533700       -1.35988826618508
H            0.73121230062182       -4.35610757112162       -3.00658810622489
H           -1.67067659176585       -3.88464277505949       -2.72703445494528
