  89
       -134.97522236
 C         -6.2828301358        2.1440708903        1.7079503367
 C         -5.4626068042        2.3229749435        0.4165391056
 C         -6.3988411966        2.6110681568       -0.7723296042
 C         -4.5330173349        3.5048529315        0.6031384537
 C         -5.0606876063        4.7605215190        0.8701150708
 C         -4.2541796976        5.8620784175        1.0907308993
 C         -2.8761215510        5.7164989148        1.0651331058
 C         -2.3234248002        4.4841724710        0.8002047333
 C         -3.1378295768        3.3723693689        0.5472526513
 N         -2.5544584052        2.1577136140        0.2622572551
 C         -1.1394713907        2.0085074083        0.2875085344
 C         -0.5478479527        1.2717455161        1.3204801815
 C          0.7855295900        0.9703665862        1.2758582199
 C          1.6016292303        1.3959492535        0.2010430395
 C          2.9645716807        0.9746006305        0.1627858992
 C          3.9278503555        1.4490548237       -0.7463904304
 C          5.2164816394        0.9553015125       -0.6650791869
 C          6.3087673849        1.3882388746       -1.5163277413
 C          7.6144038560        0.9811284282       -1.2049341975
 C          8.6836357975        1.3724201717       -1.9802756576
 C          8.4851701963        2.1778373366       -3.0920807264
 C          7.1989921514        2.5820219326       -3.4179413369
 C          6.1237395062        2.1954187146       -2.6455721248
 N          5.5117457816        0.0169078711        0.2800576894
 C          4.5790569607       -0.4153718996        1.1090741148
 C          4.9301587744       -1.4372818197        2.0974631907
 C          6.2452794399       -1.8796294558        2.2143593859
 C          6.5740308035       -2.8441730767        3.1471597513
 C          5.5948636808       -3.3788319263        3.9694893526
 C          4.2831197930       -2.9452934896        3.8561461777
 C          3.9510625362       -1.9793367482        2.9265388095
 N          3.3498515871        0.0348383460        1.0750791838
 C          0.9973272817        2.1902514253       -0.7971271649
 C         -0.3446376825        2.4795221029       -0.7586374777
 C         -3.3002667641        1.0244910081        0.0214633609
 C         -2.6236729149       -0.1479808687       -0.3341742013
 C         -3.3396403811       -1.3148685345       -0.4670089143
 C         -4.7476014927       -1.3264221877       -0.3357185673
 C         -5.4118989103       -0.1374325473       -0.0579343559
 C         -4.7089502746        1.0387892970        0.1301750456
 C         -5.1609817838       -2.6763636424       -0.5716861928
 C         -6.3968391375       -3.3133271291       -0.5689872720
 C         -6.4427922441       -4.6698185337       -0.8158451857
 C         -5.2758691972       -5.3960259976       -1.0484988267
 C         -4.0348688145       -4.7873634971       -1.0570016113
 C         -3.9813682610       -3.4196576628       -0.8342368120
 N         -2.8878704957       -2.5804571873       -0.7692106755
 C         -1.5378542491       -2.9134543139       -0.9714163893
 C         -0.5731738921       -2.4808496849       -0.0644134602
 C          0.7634047037       -2.7504339873       -0.2923727846
 C          1.1456433077       -3.4750551860       -1.4091055255
 C          0.1857663906       -3.9276894104       -2.2990948030
 C         -1.1517032135       -3.6423392508       -2.0913448960
 H         -6.8612783356        3.0370996705        1.9272524945
 H         -5.6160693673        1.9521413925        2.5464891541
 H         -6.9693005540        1.3070872219        1.6170405416
 H         -6.9691302880        3.5204773776       -0.6063271972
 H         -5.8147414821        2.7322603930       -1.6825676533
 H         -7.0975593328        1.7926611055       -0.9200911201
 H         -6.1313595846        4.8895410371        0.9136963434
 H         -4.6984594098        6.8245071858        1.2930027605
 H         -2.2336016348        6.5629240592        1.2544907348
 H         -1.2515799620        4.3629486670        0.7902306067
 H         -1.1654218278        0.9317914795        2.1402861353
 H          1.2471700379        0.3959630058        2.0638432055
 H          3.6681427533        2.2072158198       -1.4651021251
 H          7.7624740441        0.3569319510       -0.3371129880
 H          9.6819426502        1.0498907542       -1.7200922881
 H          9.3225936473        2.4850369559       -3.7008659689
 H          7.0353865553        3.2039529755       -4.2868572555
 H          5.1333134619        2.5147381094       -2.9323083451
 H          6.9953837924       -1.4547253408        1.5652472956
 H          7.5961950566       -3.1824997220        3.2360930375
 H          5.8533578064       -4.1333639076        4.6982331207
 H          3.5195614806       -3.3639597216        4.4960043710
 H          2.9341291730       -1.6307970175        2.8277832602
 H          1.5809671766        2.5500200945       -1.6297635197
 H         -0.8039878067        3.0529427498       -1.5515551826
 H         -1.5613383227       -0.1349092626       -0.5055512690
 H         -6.4882638474       -0.1480614730        0.0117214240
 H         -7.2989311544       -2.7536370623       -0.3723875455
 H         -7.3928434388       -5.1829198780       -0.8208501699
 H         -5.3428263867       -6.4596522341       -1.2227875444
 H         -3.1360585564       -5.3621291629       -1.2203554427
 H         -0.8743114952       -1.9384295856        0.8187729688
 H          1.5087142267       -2.3922004761        0.4019383588
 H          2.1898330393       -3.6846134371       -1.5850461084
 H          0.4800310615       -4.4935953806       -3.1706493698
 H         -1.8979045994       -3.9642245897       -2.8028627107
