  42
  -75.0623383700000        1.00000000000000      !
 C         -4.0915282238       -4.3491804241       -0.0063157458
 C         -2.9589548835       -5.1867585639       -0.0232750497
 C         -1.6976472367       -4.6627842013       -0.0212749106
 C         -1.5226485065       -3.2625254312       -0.0044444617
 N         -0.2870541948       -2.7429158110       -0.0011198624
 C         -0.1687421697       -1.4332474134        0.0072949324
 C         -1.3186410024       -0.5832296947        0.0100838581
 N         -2.5361733315       -1.0799130925        0.0136258452
 C         -2.6710607510       -2.4134264425        0.0079575372
 C         -3.9591251745       -2.9899677651        0.0096845775
 C         -1.1552024876        0.8627182237        0.0064865962
 N         -2.2309784297        1.6188887617        0.0036696022
 C         -2.0643986886        2.9488512084       -0.0002984742
 C         -3.1909737053        3.7987172291       -0.0061875902
 C         -3.0160845714        5.1532401664       -0.0068507604
 C         -1.7249433621        5.7166264710       -0.0010894653
 C         -0.6126915699        4.9239275671        0.0031152623
 C         -0.7552783711        3.5199506638        0.0021200355
 N          0.3329773940        2.7373108298        0.0022180291
 C          0.1555264728        1.4343596008        0.0027243610
 C          1.3259148655        0.5694381028       -0.0003255632
 N          2.5189715430        1.1223485197       -0.0131234756
 C          3.5873138123        0.3129320361       -0.0106596063
 C          4.8868544468        0.8629139932       -0.0287765444
 C          5.9721103238        0.0338579626       -0.0186019219
 C          5.8141100063       -1.3657753710        0.0105168024
 C          4.5713568813       -1.9320092656        0.0253205304
 C          3.4270308983       -1.1061265827        0.0123521468
 N          2.2049684358       -1.6567544398        0.0188937599
 C          1.1653037590       -0.8516033864        0.0094787179
 H         -5.0740275075       -4.7979603054       -0.0069545092
 H         -3.1007828364       -6.2574542709       -0.0380286594
 H         -0.8160152048       -5.2840434711       -0.0330617787
 H         -4.8105564729       -2.3279309067        0.0219313249
 H         -4.1689711850        3.3438418778       -0.0097861766
 H         -3.8734305723        5.8102392700       -0.0114654467
 H         -1.6236919920        6.7920201167       -0.0003497266
 H          0.3855677156        5.3324172650        0.0066324237
 H          4.9825934084        1.9370382881       -0.0493336373
 H          6.9700058398        0.4471811386       -0.0314307935
 H          6.6947493173       -1.9911833820        0.0198111432
 H          4.4254702689       -3.0004884775        0.0460638733
