  44
  -70.2487870900000       0.345461017831605      !
 C          6.4139744366       -0.8602832869       -1.0475582512
 C          6.0060483138        0.0235500861       -2.0354012802
 C          4.8333622783        0.7367737465       -1.8811067698
 C          4.0652584407        0.5874897463       -0.7322662502
 C          4.4736815455       -0.2991345872        0.2565019158
 C          5.6463231309       -1.0261130492        0.0886559050
 S          3.5848995284       -0.5304867040        1.7716571938
 C          1.9089684572       -0.3889878901        1.2356540349
 C          0.9567380999       -1.1884422187        1.8658685762
 C         -0.3713302620       -1.1029317948        1.5221969914
 C         -0.8062120717       -0.2055003531        0.5310017887
 C         -2.2041488040       -0.0997423360        0.1675795082
 C         -2.9484303405       -1.2822110371       -0.1603301668
 C         -2.3583201563       -2.5432852490       -0.2531579356
 C         -3.1097431650       -3.6797198459       -0.5588477827
 C         -4.4618339784       -3.5738107710       -0.8078814843
 C         -5.0668500224       -2.3213931920       -0.7882977209
 C         -4.3333983372       -1.1672438524       -0.4892300779
 C         -4.9268260210        0.1072791338       -0.5513419557
 C         -4.2073716821        1.2813762592       -0.2613427380
 C         -4.8235338157        2.5373633492       -0.3124685663
 C         -4.1386180328        3.6903350054        0.0561486690
 C         -2.8392073068        3.5942086519        0.5081305211
 C         -2.2005234509        2.3538433914        0.5585117060
 C         -2.8389385136        1.1874378008        0.1358233159
 C          0.1619445580        0.5894694654       -0.0961008099
 C          1.4963369536        0.5036670654        0.2495146823
 S          2.6189654521        1.5972193926       -0.5817460029
 H          7.3280603365       -1.4219746041       -1.1626963586
 H          6.6000833347        0.1563867140       -2.9263782124
 H          4.5018661509        1.4296224194       -2.6393458947
 H          5.9488495408       -1.7098051720        0.8670530462
 H          1.2823448391       -1.8648530057        2.6417785090
 H         -1.0999511270       -1.6981813744        2.0512546012
 H         -1.2947698019       -2.6512708486       -0.1039634977
 H         -2.6197838850       -4.6411474932       -0.6009771138
 H         -5.0482346096       -4.4518505855       -1.0341952577
 H         -6.1189513851       -2.2254920519       -1.0141523774
 H         -5.9675698924        0.1866601999       -0.8300373521
 H         -5.8525749369        2.5993511627       -0.6357891890
 H         -4.6316537958        4.6496063431        0.0041866487
 H         -2.3049703718        4.4760579884        0.8286880536
 H         -1.1958686315        2.3058534260        0.9500694899
 H         -0.1282476894        1.2644424641       -0.8870899654
  44
  -70.2484166300000       0.233425028296630      !
 C          6.4533702648        1.1507416383        0.5188612915
 C          6.0246293098        1.9974904454       -0.4921419475
 C          4.8288558277        1.7506405720       -1.1378700646
 C          4.0572882109        0.6472396158       -0.7931660270
 C          4.4879428606       -0.2010657203        0.2195185251
 C          5.6836757742        0.0612263004        0.8771166952
 S          3.6027301524       -1.6590368149        0.6989048666
 C          1.9234276723       -1.1525508004        0.5169323628
 C          0.9875493130       -1.6874391334        1.4020154198
 C         -0.3467165815       -1.3822385679        1.2846914309
 C         -0.8029358884       -0.4972889898        0.2905795783
 C         -2.2045963867       -0.1541647014        0.1731081550
 C         -3.1910173878       -1.1959041381        0.1339133372
 C         -2.8550079615       -2.5490590475        0.0768059769
 C         -3.8346748254       -3.5434576671        0.0554222678
 C         -5.1711338480       -3.2038418146        0.0592525598
 C         -5.5380762975       -1.8622661510        0.0464135268
 C         -4.5738660118       -0.8475670025        0.0622612959
 C         -4.9420112711        0.5066913484       -0.0394110718
 C         -3.9885983727        1.5415478069       -0.0411918935
 C         -4.3793424388        2.8827334813       -0.1330632259
 C         -3.4472723566        3.9113083985       -0.0488865675
 C         -2.1182122846        3.6087464411        0.1602364315
 C         -1.7036215908        2.2785500860        0.2475479516
 C         -2.6037503744        1.2226483989        0.1003347449
 C          0.1505461859        0.0464213889       -0.5801960514
 C          1.4869462409       -0.2879243190       -0.4850559138
 S          2.5768784717        0.3677629460       -1.7233032256
 H          7.3851340032        1.3389499105        1.0292937365
 H          6.6200586897        2.8511232277       -0.7766593806
 H          4.4812375467        2.3988569686       -1.9277200080
 H          6.0027028005       -0.6088771142        1.6606829136
 H          1.3343830312       -2.3489406034        2.1813378737
 H         -1.0514326161       -1.7833514298        1.9970653776
 H         -1.8179404469       -2.8438107320        0.0294261773
 H         -3.5341389169       -4.5803190175        0.0312849406
 H         -5.9316511562       -3.9703390464        0.0528403936
 H         -6.5822464857       -1.5874051630        0.0146625889
 H         -5.9890903132        0.7597748916       -0.1209244789
 H         -5.4271458467        3.1116910652       -0.2624634117
 H         -3.7700581520        4.9386858110       -0.1284100700
 H         -1.3874555479        4.3973709319        0.2617582457
 H         -0.6637224325        2.0740133242        0.4512898895
 H         -0.1662273102        0.6913112509       -1.3859317092
  44
  -70.2484075100000       0.231183140089958      !
 C          6.3732909351       -1.5903574144       -0.0325886525
 C          5.9189335372       -1.9210838162       -1.3004510343
 C          4.7506915468       -1.3631081513       -1.7821701832
 C          4.0325888884       -0.4576449037       -1.0099233989
 C          4.4877668077       -0.1282886249        0.2609139354
 C          5.6556658495       -0.7037336371        0.7465338010
 S          3.6665629851        1.0453596269        1.3040743820
 C          1.9692002413        0.7373824195        0.9388469983
 C          1.0463096581        0.8892449313        1.9735457842
 C         -0.2981785781        0.7221374147        1.7472152570
 C         -0.7810536143        0.3662092233        0.4740948841
 C         -2.1949999940        0.1743861768        0.2321678440
 C         -2.6580823550       -1.0128896517       -0.4290190107
 C         -1.8114195212       -2.0699319412       -0.7650269481
 C         -2.2868336047       -3.2055640415       -1.4231972180
 C         -3.6256891463       -3.3212781114       -1.7330236615
 C         -4.5070714093       -2.3166419120       -1.3489080663
 C         -4.0546136439       -1.1714290338       -0.6826428862
 C         -4.9586240045       -0.1982297689       -0.2183416892
 C         -4.5284481646        0.9572773661        0.4594393857
 C         -5.4443281822        1.9210414799        0.8978414970
 C         -5.0156793760        3.1051451835        1.4879174414
 C         -3.6647547325        3.3510705669        1.6151149963
 C         -2.7326706959        2.4023772021        1.1904027933
 C         -3.1315464713        1.1751195985        0.6594734726
 C          0.1593945391        0.1991769477       -0.5514308370
 C          1.5080939274        0.3967530615       -0.3314592676
 S          2.5880351719        0.2663102691       -1.7345709556
 H          7.2845421090       -2.0233502887        0.3501103896
 H          6.4734559006       -2.6145144355       -1.9137586745
 H          4.3843520745       -1.6084132844       -2.7672565855
 H          5.9946539735       -0.4343533646        1.7351544898
 H          1.4116375627        1.1426772471        2.9571809518
 H         -0.9932998812        0.8127822645        2.5678961621
 H         -0.7663215969       -2.0269392761       -0.4997800352
 H         -1.5953598391       -3.9929570579       -1.6841616364
 H         -3.9950934255       -4.1925628432       -2.2530209262
 H         -5.5629240299       -2.4148511006       -1.5560850455
 H         -6.0155248439       -0.3414756340       -0.3898780909
 H         -6.4998702013        1.7356006008        0.7617091208
 H         -5.7394705511        3.8322200917        1.8247438155
 H         -3.3159326534        4.2805669934        2.0397715776
 H         -1.6827119671        2.6417060158        1.2617973001
 H         -0.1745601947       -0.0258288257       -1.5530875894
  44
  -70.2474384500000       8.291001951978057E-002 !
 C          6.0267966346        1.5447744465        0.8799640162
 C          5.5909146306        2.3612215646       -0.1526382486
 C          4.5523145322        1.9515969277       -0.9666275761
 C          3.9493915027        0.7175364588       -0.7617527842
 C          4.3877096896       -0.1009457338        0.2716623073
 C          5.4241852872        0.3196510129        1.0940920534
 S          3.6718232306       -1.6969781715        0.5742294576
 C          1.9633879189       -1.3116475767        0.3523520185
 C          1.0305428473       -1.8747953058        1.2215272424
 C         -0.3046836995       -1.5697144070        1.1098161510
 C         -0.7638833356       -0.6678895038        0.1319554642
 C         -2.1465780583       -0.2449987367        0.0877864883
 C         -3.2013169898       -1.2167122298        0.1392376971
 C         -2.9626694014       -2.5889823674        0.0595647757
 C         -4.0045313663       -3.5151713079        0.1455422294
 C         -5.3078842517       -3.0858659901        0.2832919033
 C         -5.5847070481       -1.7226196575        0.2899701774
 C         -4.5582040857       -0.7757613684        0.1950500809
 C         -4.8423436675        0.5994672645        0.1063788680
 C         -3.8257011196        1.5667821605        0.0004552615
 C         -4.1345441477        2.9298290290       -0.0826977028
 C         -3.1343841894        3.8961760158       -0.0929296789
 C         -1.8160848955        3.5084324652        0.0199075679
 C         -1.4842296628        2.1546700756        0.0997716445
 C         -2.4577009022        1.1571486624        0.0332693252
 C          0.1811005551       -0.1447514504       -0.7626549159
 C          1.5189250684       -0.4636306048       -0.6595688434
 S          2.6405961135        0.2280190002       -1.8526208817
 H          6.8340436006        1.8632379288        1.5214422660
 H          6.0572986940        3.3196104125       -0.3221338639
 H          4.1995633530        2.5752812895       -1.7736193433
 H          5.7517331421       -0.3276592658        1.8930711817
 H          1.3806151230       -2.5393747920        1.9965750891
 H         -1.0047392942       -1.9726063824        1.8256703494
 H         -1.9566196604       -2.9515162798       -0.0874299771
 H         -3.7786110753       -4.5701994476        0.1024015797
 H         -6.1144445932       -3.7990870025        0.3661534426
 H         -6.6062606217       -1.3779343886        0.3598054453
 H         -5.8729418831        0.9230852467        0.1179709925
 H         -5.1723744639        3.2257487842       -0.1312237916
 H         -3.3944946133        4.9415020559       -0.1674254329
 H         -1.0284474411        4.2466271193        0.0497172165
 H         -0.4473672599        1.8886482607        0.2357487599
 H         -0.1427566447        0.4870366053       -1.5757735929
  44
  -70.2472839700000       7.040652745819874E-002 !
 C          5.9775480095        1.5703677769        0.9136534032
 C          5.5360633970        2.3907358938       -0.1134109438
 C          4.5150233643        1.9704623485       -0.9441152050
 C          3.9346417692        0.7227246449       -0.7594444220
 C          4.3772377574       -0.0987885863        0.2696540394
 C          5.3974130814        0.3309843089        1.1071335430
 S          3.6796736336       -1.7077238805        0.5481814508
 C          1.9688104958       -1.3256205575        0.3354770212
 C          1.0395554386       -1.8860972657        1.2097260853
 C         -0.2954045924       -1.5766693507        1.1048083152
 C         -0.7571906822       -0.6755888567        0.1277504240
 C         -2.1389206629       -0.2483328204        0.0889967829
 C         -3.1966491505       -1.2163893460        0.1447504040
 C         -2.9627467204       -2.5897195944        0.0700707423
 C         -4.0076550559       -3.5121013973        0.1603868363
 C         -5.3093040372       -3.0778710730        0.2968202191
 C         -5.5815109989       -1.7135792058        0.2982416411
 C         -4.5519500210       -0.7705575517        0.1998556008
 C         -4.8313800546        0.6054631844        0.1075088783
 C         -3.8115468650        1.5692371069       -0.0002467590
 C         -4.1154733979        2.9332045074       -0.0854299913
 C         -3.1117204629        3.8960058705       -0.0973397970
 C         -1.7948712206        3.5037809250        0.0153871135
 C         -1.4679067781        2.1488563919        0.0975924533
 C         -2.4450625279        1.1548193072        0.0331284702
 C          0.1840757710       -0.1557708519       -0.7725592329
 C          1.5215472149       -0.4770262365       -0.6745334308
 S          2.6441237045        0.2173608137       -1.8654329949
 H          6.7708068536        1.8974641870        1.5679850075
 H          5.9844965825        3.3604860868       -0.2656845566
 H          4.1592523433        2.5962301989       -1.7481538306
 H          5.7290414060       -0.3190358225        1.9021938354
 H          1.3916296449       -2.5512627593        1.9833335560
 H         -0.9926815386       -1.9758021367        1.8254608511
 H         -1.9582309020       -2.9562395355       -0.0768047949
 H         -3.7852158644       -4.5679893542        0.1211870915
 H         -6.1183355300       -3.7879777726        0.3817359616
 H         -6.6019026255       -1.3653892475        0.3665881937
 H         -5.8608652852        0.9325820432        0.1184184487
 H         -5.1521736014        3.2329628475       -0.1345165540
 H         -3.3681170573        4.9420846666       -0.1739667403
 H         -1.0046450428        4.2391838679        0.0442759417
 H         -0.4320474241        1.8792357492        0.2336675755
 H         -0.1423351104        0.4761026304       -1.5845395786
  44
  -70.2466660800000       3.661426680382818E-002 !
 C          5.8821113380       -2.0552972284        0.2921098657
 C          5.4255089184       -2.4253308727       -0.9638019679
 C          4.4492665213       -1.6775309441       -1.5946628949
 C          3.9261347244       -0.5501624017       -0.9758148425
 C          4.3798568140       -0.1844781270        0.2851883538
 C          5.3574536396       -0.9400158239        0.9172201952
 S          3.7337002285        1.2374834516        1.1288208438
 C          2.0174290318        1.0104701218        0.7809141102
 C          1.0920368346        1.2014258565        1.8052692797
 C         -0.2474001039        0.9987958939        1.5817913474
 C         -0.7259399908        0.5972666957        0.3187568170
 C         -2.1244667838        0.2885049870        0.1275643194
 C         -2.5177753874       -0.9321168406       -0.5233967656
 C         -1.6060163767       -1.8835699552       -0.9820682213
 C         -2.0231105479       -3.0443000269       -1.6361979582
 C         -3.3664368955       -3.3014744671       -1.8104743444
 C         -4.3030192005       -2.4155529332       -1.2902071437
 C         -3.9079914038       -1.2445798818       -0.6320598826
 C         -4.8605609353       -0.4066081883       -0.0227861418
 C         -4.4956843544        0.7796085135        0.6386028871
 C         -5.4568570583        1.6049324454        1.2345639706
 C         -5.1047141260        2.8274943623        1.7960070047
 C         -3.7955016442        3.2559049694        1.7268143808
 C         -2.8176011162        2.4424469537        1.1500903798
 C         -3.1237748713        1.1723232873        0.6616305985
 C          0.2147940757        0.4534752257       -0.7125892241
 C          1.5618766864        0.6445011564       -0.4832331593
 S          2.6946448456        0.3982892559       -1.8319555329
 H          6.6412515020       -2.6393806560        0.7891546795
 H          5.8270065532       -3.3005853612       -1.4511391682
 H          4.0853484384       -1.9522222792       -2.5727199888
 H          5.6958972051       -0.6409576134        1.8974088088
 H          1.4511142084        1.4877775469        2.7818647878
 H         -0.9418707730        1.0859101422        2.4032561581
 H         -0.5492806372       -1.7431079414       -0.8180179224
 H         -1.2810016334       -3.7389295906       -2.0006778714
 H         -3.6931330682       -4.1926964852       -2.3251056359
 H         -5.3580992524       -2.6293058108       -1.3808391548
 H         -5.9045013415       -0.6800166354       -0.0711386228
 H         -6.4867012259        1.2788874087        1.2482030202
 H         -5.8591272947        3.4428726464        2.2630468041
 H         -3.5149300565        4.2217272614        2.1196639745
 H         -1.8089242092        2.8192210959        1.0725492307
 H         -0.1145840161        0.2323083278       -1.7163324898
