66
 energy: -88.328271434532 gnorm: 0.000039838543 xtb: 6.7.1 (edcfbbe)
C           -7.25380280873204        2.65908024614385       -1.39687586484719
C           -7.10822798952762        2.11619129274157        0.03185155958856
C           -8.43090001641637        1.48113331203540        0.48379470361223
C           -6.80385339128755        3.29475336102744        0.96059623345064
C           -6.01754097265432        1.05704211388943        0.05079331410561
C           -6.15055860266984       -0.08098753293400       -0.74165000695081
C           -5.18878228409718       -1.07012219032658       -0.75500242502464
C           -4.04090724453255       -0.96144359906098        0.02573612455603
C           -3.01074175208032       -2.00993310833572        0.01506203532657
C           -3.38749092053224       -3.36019665734112        0.00555017110529
C           -2.45737399939572       -4.37944959067307       -0.00084438989476
C           -1.11525445562787       -4.03253949194449       -0.00404132355709
N            0.00042798564630       -4.83116765052022       -0.01426857715977
C            1.12179473792605       -4.04044631469015       -0.01447666011644
C            2.46138917836501       -4.39695792987946       -0.02110698956948
C            3.39879849291711       -3.38440304258268       -0.01391664935167
C            3.03159886960651       -2.03154469824690       -0.00704186466241
C            4.06897608590715       -0.99009554629943       -0.00231680108217
C            5.21048693374558       -1.11262035728821        0.78202816041008
C            6.18327048711906       -0.12954005298436        0.78857564020946
C            6.06010359968660        1.01398749067201        0.00899041309131
C            7.10534803011020        2.11783854002309       -0.01846382072417
C            7.64390721514170        2.26052748820207       -1.44909987615437
C            6.45490350176919        3.43560165965916        0.42587039618237
C            8.28896600042376        1.83436520857290        0.91049019514175
C            4.91581986957341        1.13053512917487       -0.77708654764477
C            3.93965823621124        0.15556161391258       -0.78323526303576
C            1.68701321173151       -1.68182690345306       -0.00544975174528
C            0.72710902964438       -2.68197326227886       -0.00568433973866
C           -0.71091334205162       -2.67690151752396        0.00356467664048
C           -1.66361045179806       -1.66998786933362        0.01618674507991
C           -3.90152736723878        0.17437834479888        0.81574227628298
C           -4.87099923176633        1.16058615395867        0.82886329679727
H           -8.01961304998649        3.43146645490655       -1.42866341385281
H           -7.53415113468952        1.87332990986509       -2.09285076132358
H           -6.31306537665843        3.09110037182763       -1.73215000547216
H           -8.73040453412015        0.67457059016372       -0.17961688181485
H           -8.32885728426732        1.07573972265050        1.48844022033100
H           -9.22251523195738        2.22770013052382        0.49117138915608
H           -6.71530140212933        2.96628971757957        1.99362883951406
H           -5.88590442156478        3.79820084830000        0.66609702995243
H           -7.61544320606782        4.01786975016735        0.90666306151654
H           -7.02177269604576       -0.20439388160296       -1.36809711687420
H           -5.31862212265500       -1.93039305828714       -1.39611488836962
H           -4.43883912057784       -3.60671778427962        0.02570333513699
H           -2.76637002069637       -5.41466872322186       -0.00047345111152
H           -0.00314963687838       -5.83641731963235       -0.02028341141162
H            2.76291517972228       -5.43429336793501       -0.03407501689215
H            4.44845527555568       -3.63789295243559       -0.03578449273056
H            5.33160462805777       -1.98054469176991        1.41459417519508
H            7.04479870130651       -0.27293029161544        1.42070462895947
H            8.08928432458127        1.32374857011459       -1.77800674412563
H            8.40487599164457        3.03736405294788       -1.48799153428456
H            6.85280733406925        2.52377019156387       -2.14569935350884
H            5.64557096562110        3.72256235885935       -0.23964954223997
H            6.04996679981357        3.33439346396414        1.43078042575294
H            7.19250077506054        4.23559199082614        0.42945685985868
H            8.80497269301736        0.92206284028285        0.62014260103477
H            9.00076933205439        2.65556624550623        0.85173394998937
H            7.96261557788339        1.74648044406742        1.94426107094255
H            4.77726011538055        1.99899642594927       -1.40417956151612
H            3.07294721986376        0.27238758621015       -1.41807653722840
H            1.39244611006079       -0.64341562392885        0.01772198774001
H           -1.36148143088245       -0.63356573636013        0.00546531497066
H           -3.03057121274495        0.27978612625061        1.44685004320518
H           -4.71481577688270        2.01681299942658        1.46515998917234
