  66
        -88.21928980
 C         -7.4291654082        3.0648943121       -1.4871431300
 C         -7.1553513443        2.6726872247       -0.0277628918
 C         -8.4311758595        2.0936720771        0.6010137215
 C         -6.7776174289        3.9400786343        0.7438791097
 C         -6.0615705363        1.6193031375        0.0037344346
 C         -6.2586461695        0.3984694799       -0.6434854832
 C         -5.2980556868       -0.5875397277       -0.6407499634
 C         -4.0718211186       -0.4029884725        0.0088463785
 C         -3.0493534442       -1.4391778755        0.0176883984
 C         -3.4089224339       -2.7980287026        0.0246931241
 C         -2.4734845542       -3.8088550624        0.0439374701
 C         -1.1274560271       -3.4511099734        0.0481687894
 N         -0.0073633590       -4.2358855714        0.0620864506
 C          1.1093332980       -3.4573274380        0.0579468951
 C          2.4723536548       -3.8126978708        0.0647348332
 C          3.4012617810       -2.8203632450        0.0466502810
 C          3.0636086001       -1.4171182559        0.0304615914
 C          4.0517763662       -0.4188749685        0.0133206004
 C          5.4397110571       -0.6988265148       -0.2259034168
 C          6.3830411247        0.2827415730       -0.2477818275
 C          6.0689833456        1.6404380756       -0.0252141002
 C          7.1630247914        2.6834259364       -0.0604808373
 C          6.6424466548        4.0980919671        0.2077387609
 C          8.2147575395        2.3488262455        1.0099116506
 C          7.8240763292        2.6722143572       -1.4489707248
 C          4.7162403126        1.9356013930        0.2181546276
 C          3.7527724854        0.9689652213        0.2321158738
 C          1.6507273423       -1.0892080070        0.0322418717
 C          0.7189031924       -2.0832396804        0.0402158870
 C         -0.7332715906       -2.0870785646        0.0349935165
 C         -1.6822206412       -1.0937707763        0.0241016870
 C         -3.8722518458        0.8224457954        0.6519431700
 C         -4.8433286811        1.8026297361        0.6516071360
 H         -7.7632235481        2.2110217327       -2.0701420550
 H         -6.5244524373        3.4577564793       -1.9466169148
 H         -8.2005404520        3.8310564795       -1.5314274669
 H         -8.7842733046        1.2247213660        0.0527464699
 H         -8.2400233021        1.7931172258        1.6292484535
 H         -9.2221311229        2.8409663806        0.6005771829
 H         -6.5931545767        3.7185420855        1.7926141515
 H         -5.8941228219        4.4093785270        0.3173166101
 H         -7.5964597051        4.6549574168        0.6903322320
 H         -7.1838836539        0.2108214380       -1.1683822339
 H         -5.4847234431       -1.5062740548       -1.1775061769
 H         -4.4564071995       -3.0583060340        0.0467068994
 H         -2.7733634921       -4.8464803503        0.0631786256
 H         -0.0091963043       -5.2433240610        0.0696944931
 H          2.7646419535       -4.8528160952        0.0908145839
 H          4.4418458066       -3.0979974234        0.0777961828
 H          5.7495778427       -1.7108785765       -0.4315131704
 H          7.4077211634        0.0044676026       -0.4488528047
 H          5.9136554286        4.3950280941       -0.5429173918
 H          7.4705227781        4.8034171157        0.1698338660
 H          6.1875459669        4.1666229269        1.1932478433
 H          9.0056904075        3.0961876854        1.0039274884
 H          7.7554812154        2.3382024123        1.9962719397
 H          8.6639473482        1.3756103804        0.8329590651
 H          7.0864667526        2.8959787515       -2.2169629188
 H          8.6109052221        3.4225969719       -1.4948079227
 H          8.2631327714        1.7035413132       -1.6703003385
 H          4.4153897553        2.9544638888        0.4056939118
 H          2.7393942985        1.2631546435        0.4525707913
 H          1.3339488751       -0.0615306564       -0.0104314019
 H         -1.3861937068       -0.0569866095       -0.0110872700
 H         -2.9521202564        0.9974595748        1.1901945468
 H         -4.6352322770        2.7219328393        1.1752090791
