  66
        -88.32825214
 C         -7.2445766072        3.2349696522       -1.3930036990
 C         -7.1058845835        2.6855210123        0.0340213389
 C         -8.4309536146        2.0486909233        0.4766373224
 C         -6.8057892652        3.8596470194        0.9694903270
 C         -6.0157584213        1.6256993990        0.0537468301
 C         -6.1469574076        0.4893955915       -0.7414383758
 C         -5.1863108568       -0.5009084571       -0.7528355889
 C         -4.0414171233       -0.3946894607        0.0324126433
 C         -3.0117420347       -1.4436786745        0.0236880558
 C         -3.3880059827       -2.7940269274        0.0150632219
 C         -2.4574429469       -3.8130007688        0.0088080809
 C         -1.1154171269       -3.4656383813        0.0042583481
 N          0.0009895632       -4.2634015325       -0.0094586242
 C          1.1217792586       -3.4717868923       -0.0130495054
 C          2.4619189795       -3.8261282888       -0.0272656822
 C          3.3980171836       -2.8122557094       -0.0247250810
 C          3.0294880224       -1.4597049108       -0.0130506330
 C          4.0638379818       -0.4154594678       -0.0137788646
 C          5.2196046774       -0.5419611941        0.7488813504
 C          6.1883177700        0.4452051236        0.7498679753
 C          6.0461411875        1.5980507207       -0.0125653902
 C          7.0835319003        2.7091723812       -0.0417454096
 C          7.5789893028        2.8963296947       -1.4827527771
 C          6.4364226378        4.0086161696        0.4582266519
 C          8.2965660560        2.4089417862        0.8428989937
 C          4.8869853437        1.7194970974       -0.7757247979
 C          3.9161071413        0.7394187021       -0.7779945849
 C          1.6841958247       -1.1123818572       -0.0025904714
 C          0.7258816681       -2.1137716796       -0.0007896988
 C         -0.7119429809       -2.1097802825        0.0120064574
 C         -1.6648180839       -1.1031993552        0.0249020712
 C         -3.9033054860        0.7398918055        0.8244358141
 C         -4.8718198718        1.7269759675        0.8358811965
 H         -8.0114762713        4.0064741839       -1.4251509690
 H         -7.5201725520        2.4521995741       -2.0941178665
 H         -6.3025080177        3.6700100809       -1.7214757647
 H         -8.7297243561        1.2480339562       -0.1941412057
 H         -8.3323080021        1.6349044669        1.4783046441
 H         -9.2216312165        2.7962878726        0.4877362788
 H         -6.7204870632        3.5262584690        2.0011770326
 H         -5.8872220759        4.3652344378        0.6805039320
 H         -7.6177820146        4.5824502022        0.9161686714
 H         -7.0155710874        0.3685701937       -1.3721035363
 H         -5.3144459194       -1.3600290818       -1.3958699944
 H         -4.4393256860       -3.0407953570        0.0351594645
 H         -2.7661638919       -4.8483272786        0.0095482136
 H         -0.0018461044       -5.2686779248       -0.0162281019
 H          2.7650084287       -4.8629597876       -0.0431733009
 H          4.4476578580       -3.0649158973       -0.0541455845
 H          5.3557998417       -1.4162648976        1.3694124109
 H          7.0617192630        0.2978256656        1.3645733213
 H          8.0228231241        1.9733138347       -1.8502153887
 H          8.3317145011        3.6811407262       -1.5215994066
 H          6.7663907431        3.1715722812       -2.1491570844
 H          5.6033092652        4.3044575146       -0.1732318646
 H          6.0649980708        3.8769318959        1.4724492834
 H          7.1665789965        4.8152725181        0.4595767755
 H          8.8043457016        1.5040537042        0.5168272032
 H          9.0046492096        3.2329669198        0.7789868880
 H          8.0038244655        2.2985508921        1.8845094281
 H          4.7321576166        2.5960467832       -1.3875573186
 H          3.0384314069        0.8603084229       -1.3967203877
 H          1.3874390274       -0.0747745145        0.0251203761
 H         -1.3631545035       -0.0666356316        0.0137940113
 H         -3.0343943450        0.8431809854        1.4587813576
 H         -4.7171062971        2.5819368221        1.4742216759
