  56
  -95.3890525458000       0.170016669977249      !
 O          3.4158687005       -1.5207294374       -2.4300541044
 S          3.1687585034       -1.9414009945       -1.0740229891
 O          3.4414090015       -3.3154851196       -0.7508957089
 C          4.0753738396       -0.8556106871        0.0040345031
 C          5.4026661539       -1.1525769304        0.2481282061
 C          6.1960298985       -0.2729998057        0.9588927603
 C          5.6390924181        0.9195221542        1.3985933607
 C          4.3113095689        1.2134119040        1.1664092464
 C          3.4847562382        0.3162552044        0.4731843321
 N          2.1403749993        0.6038688056        0.2940414935
 C          1.6842600535        1.9215179002        0.6194626213
 C          1.3625151638        2.2609341912        1.9276504083
 C          0.9044066289        3.5356148535        2.2105601152
 C          0.7633913388        4.4658363317        1.1934817777
 C          1.0829921491        4.1238482269       -0.1096499688
 C          1.5449862485        2.8517090935       -0.4003405179
 C          1.1773649552       -0.3026255757       -0.1145032395
 C         -0.1784218335        0.0031328420        0.0610175211
 C         -1.1718416452       -0.8791370596       -0.3367353095
 N         -2.5217741108       -0.5127340611       -0.1777595469
 C         -3.3770826274       -1.2866437842        0.6140223291
 C         -2.9214292683       -2.3640544402        1.3631221111
 C         -3.7959838387       -3.1116423745        2.1373133216
 C         -5.1364882374       -2.7876205587        2.1864294280
 C         -5.6004930156       -1.6916281980        1.4743277137
 C         -4.7317641888       -0.9416880876        0.7033241826
 O         -5.2575333904        0.1490878623        0.0574150415
 C         -4.3990473503        0.9210726419       -0.6841204188
 C         -4.9423302503        2.0266051138       -1.3121263483
 C         -4.1505429596        2.8403584241       -2.1082323690
 C         -2.8183603059        2.5268709084       -2.2841748655
 C         -2.2682469319        1.4201285499       -1.6554434897
 C         -3.0392215539        0.6130145433       -0.8281641109
 C         -0.8384166998       -2.1171535027       -0.8885711924
 C          0.4942720539       -2.4334549797       -1.0479454467
 C          1.4829539909       -1.5398626656       -0.6795463642
 H          5.7857465338       -2.0826787375       -0.1412569480
 H          7.2321001004       -0.4999498635        1.1524079918
 H          6.2471877060        1.6322978517        1.9351344255
 H          3.9073976943        2.1479619926        1.5224812599
 H          1.4706778922        1.5250171396        2.7107115789
 H          0.6536034999        3.8011886956        3.2263565707
 H          0.4028657803        5.4580873715        1.4178732360
 H          0.9730914920        4.8480930042       -0.9021589022
 H          1.7983459653        2.5704805635       -1.4114035849
 H         -0.4714022571        0.9389658254        0.5106633833
 H         -1.8736944170       -2.6195855305        1.3455752951
 H         -3.4150200673       -3.9485188084        2.7018637760
 H         -5.8220708672       -3.3705225221        2.7803993321
 H         -6.6373584372       -1.3979312358        1.5067178540
 H         -5.9922726355        2.2277297267       -1.1710078183
 H         -4.5830329006        3.7011937325       -2.5928789993
 H         -2.1924645717        3.1362865983       -2.9175481649
 H         -1.2313163518        1.1770990658       -1.8237202327
 H         -1.6149271265       -2.7988382542       -1.1967674867
 H          0.8047723634       -3.3722099032       -1.4784642508
  56
  -95.3889303563000       0.149395356667232      !
 O          3.3230975249       -2.9221074481       -0.8810440639
 S          3.1596244825       -2.2442530670        0.3795620426
 O          3.4861608371       -2.9832137771        1.5686044401
 C          4.0951337659       -0.7322481024        0.3218583201
 C          5.4517501191       -0.8170577814        0.5717614686
 C          6.2558067582        0.3003924727        0.4598340787
 C          5.6745636283        1.5028626635        0.0834210781
 C          4.3194246220        1.5926924961       -0.1574785096
 C          3.4872396469        0.4684652481       -0.0383891523
 N          2.1242078140        0.5936823167       -0.2587588041
 C          1.6401265808        1.8781055630       -0.6692079550
 C          1.2168689682        2.7977493577        0.2825199028
 C          0.7247715868        4.0254674454       -0.1222897603
 C          0.6602778522        4.3367843789       -1.4708700762
 C          1.0889885802        3.4207087971       -2.4169006134
 C          1.5783169256        2.1877366609       -2.0199067292
 C          1.1702989225       -0.3616019983        0.0453282338
 C         -0.1893138328       -0.0377755243       -0.0505261262
 C         -1.1742804165       -0.9361742359        0.3315400435
 N         -2.5245599638       -0.5466318750        0.2464406020
 C         -3.4136943747       -1.2385068614       -0.5848307334
 C         -3.0183345407       -2.3196447900       -1.3620104695
 C         -3.9283855360       -2.9848597969       -2.1697473604
 C         -5.2444564861       -2.5733998008       -2.2258058549
 C         -5.6465411690       -1.4722330310       -1.4851713128
 C         -4.7423840206       -0.8050701475       -0.6795360321
 O         -5.2086916022        0.2972054646       -0.0067619764
 C         -4.3140203975        0.9935941315        0.7641596204
 C         -4.7913608941        2.1196572605        1.4096459436
 C         -3.9609501515        2.8575139842        2.2396061129
 C         -2.6592365994        2.4443710420        2.4361475183
 C         -2.1756412341        1.3174015943        1.7892118011
 C         -2.9808993588        0.5908068433        0.9208929384
 C         -0.8297568219       -2.2032563447        0.8039580598
 C          0.5039624119       -2.5538497061        0.8383677234
 C          1.4849206428       -1.6544717033        0.4631214398
 H          5.8473064221       -1.7801991353        0.8533276111
 H          7.3146902680        0.2380295508        0.6524391086
 H          6.2847843222        2.3875593374       -0.0206550122
 H          3.8960968629        2.5436630099       -0.4398266620
 H          1.2726774231        2.5428099961        1.3303394256
 H          0.3896415087        4.7381628926        0.6155748164
 H          0.2742201906        5.2947026869       -1.7842968246
 H          1.0394362367        3.6636655454       -3.4673330113
 H          1.9111529653        1.4620096448       -2.7463653827
 H         -0.4946179371        0.9265862493       -0.4248659565
 H         -1.9890963988       -2.6417046321       -1.3448563968
 H         -3.5929809860       -3.8255520167       -2.7571919294
 H         -5.9571355185       -3.0903783727       -2.8485074113
 H         -6.6609653546       -1.1087581614       -1.5227939453
 H         -5.8209464473        2.3981632598        1.2531732688
 H         -4.3405792312        3.7372567004        2.7342472122
 H         -2.0072180397        2.9909327571        3.0999297948
 H         -1.1636013171        0.9934022906        1.9723508531
 H         -1.5968935371       -2.8909263489        1.1218816618
 H          0.8231123044       -3.5302361692        1.1670348090
  56
  -95.3889084723000       0.145975479130529      !
 O          3.5259985867       -1.6222214155       -2.7377840446
 S          3.1877853864       -1.7900795660       -1.3498033948
 O          3.3578193336       -3.1056165957       -0.7908101756
 C          4.1151027868       -0.6332480519       -0.3650096793
 C          5.4920616685       -0.7359899735       -0.4371003745
 C          6.2984571769        0.0741126337        0.3375454659
 C          5.6967343705        0.9819102450        1.1973846488
 C          4.3238717299        1.0896227479        1.2690184248
 C          3.4901912362        0.2846177526        0.4757168318
 N          2.1141864442        0.4311656466        0.5566789730
 C          1.6058340284        1.3781210214        1.5039397766
 C          1.1994498273        0.9417767023        2.7573557700
 C          0.6901177995        1.8516624747        3.6673743408
 C          0.5909831773        3.1909833473        3.3290954815
 C          0.9996880099        3.6243375717        2.0782886837
 C          1.5054779722        2.7200537750        1.1610475217
 C          1.1785311019       -0.2632556063       -0.1892819162
 C         -0.1802320873        0.0563721899       -0.0571501154
 C         -1.1573684101       -0.6381290492       -0.7532422557
 N         -2.5107396170       -0.3101213609       -0.5434060238
 C         -3.0800465191       -0.4283710893        0.7288592095
 C         -2.3760095217       -0.9257132853        1.8184035540
 C         -2.9747894872       -1.0333848250        3.0644540473
 C         -4.2908629404       -0.6586503629        3.2416306022
 C         -5.0181720834       -0.1916944679        2.1571138593
 C         -4.4259490607       -0.0834333892        0.9123099073
 O         -5.2217365259        0.3559323931       -0.1148925808
 C         -4.6499732119        0.4636233412       -1.3585555192
 C         -5.4609440339        0.9182730937       -2.3816744924
 C         -4.9478158223        1.0874718315       -3.6590570158
 C         -3.6155707396        0.8177121585       -3.8970063682
 C         -2.7985536347        0.3596749757       -2.8742803499
 C         -3.3053751237        0.1516369859       -1.5979409608
 C         -0.8048409308       -1.6567981021       -1.6394224798
 C          0.5317230272       -1.9527899739       -1.8034321313
 C          1.5043879945       -1.2758147493       -1.0897732211
 H          5.9011656871       -1.4693798114       -1.1140217842
 H          7.3723282354       -0.0032989379        0.2826258136
 H          6.3054817416        1.6164230954        1.8239243110
 H          3.8871923645        1.8027496315        1.9501129124
 H          1.2815917036       -0.1049790436        3.0077306075
 H          0.3686344619        1.5132302270        4.6405351970
 H          0.1942006516        3.8984355720        4.0410399252
 H          0.9224082853        4.6680422804        1.8148998955
 H          1.8256457529        3.0431764231        0.1816799596
 H         -0.4904189428        0.8519939452        0.6019004655
 H         -1.3539387327       -1.2450864489        1.6915534741
 H         -2.4005515625       -1.4201226389        3.8922364030
 H         -4.7611170295       -0.7379643035        4.2089283068
 H         -6.0547615615        0.0887718171        2.2540501154
 H         -6.4918624437        1.1390889760       -2.1558927685
 H         -5.5889350875        1.4381431144       -4.4521958712
 H         -3.1957381406        0.9633195637       -4.8802077117
 H         -1.7554094926        0.1691551549       -3.0709787463
 H         -1.5683202663       -2.2003564092       -2.1724234539
 H          0.8590965883       -2.7283875490       -2.4774668777
  56
  -95.3888744516000       0.140813754505100      !
 O          3.5118006790       -2.9910110496       -1.5120552375
 S          3.1590615131       -2.1949761167       -0.3685600343
 O          3.2959311304       -2.8028063120        0.9301667092
 C          4.0786780259       -0.6740873920       -0.3637839995
 C          5.4175922438       -0.7188020066       -0.7023564831
 C          6.1996891101        0.4159214663       -0.6082492383
 C          5.6162041665        1.5921684170       -0.1583555649
 C          4.2765290090        1.6426282672        0.1667956986
 C          3.4657817585        0.5016966901        0.0637676409
 N          2.1110944324        0.5870560289        0.3521017351
 C          1.6557972509        1.7910503081        0.9781497085
 C          1.7721188550        1.9173185557        2.3547318715
 C          1.3420968786        3.0779362835        2.9749432558
 C          0.7928010375        4.1049292481        2.2252277370
 C          0.6755296992        3.9757192452        0.8511852349
 C          1.1096097852        2.8219714693        0.2229134855
 C          1.1580631936       -0.3402027670       -0.0330575178
 C         -0.2034448605       -0.0182740533        0.0326102831
 C         -1.1727239752       -0.8985139006       -0.4249458473
 N         -2.5270011187       -0.5132101755       -0.3679482729
 C         -3.4400133752       -1.2289076625        0.4133013510
 C         -3.0645190938       -2.3263443530        1.1772496489
 C         -3.9973717083       -3.0134333486        1.9394982624
 C         -5.3165927540       -2.6092519547        1.9602107426
 C         -5.7008164719       -1.4949846424        1.2290019896
 C         -4.7742025212       -0.8052020054        0.4696636603
 O         -5.2232815374        0.3086517004       -0.1964946333
 C         -4.3144402912        1.0041899582       -0.9519901405
 C         -4.7829671027        2.1168901358       -1.6259582063
 C         -3.9342812050        2.8535562462       -2.4387206923
 C         -2.6217177423        2.4548527368       -2.5871370707
 C         -2.1462420144        1.3413331842       -1.9110973032
 C         -2.9730611990        0.6138630575       -1.0644168414
 C         -0.8134169210       -2.1408470734       -0.9476626354
 C          0.5212305650       -2.4900652828       -0.9603093706
 C          1.4864329523       -1.6103972218       -0.5078257807
 H          5.8177218058       -1.6640777244       -1.0342478299
 H          7.2452545003        0.3859826090       -0.8694167616
 H          6.2116147026        2.4880869750       -0.0655069754
 H          3.8486649597        2.5749873777        0.5008592149
 H          2.2029541246        1.1083500701        2.9263307916
 H          1.4374763547        3.1793544301        4.0461938364
 H          0.4577953114        5.0081015015        2.7122765967
 H          0.2488843029        4.7754228380        0.2663498325
 H          1.0279731078        2.7138174197       -0.8483857896
 H         -0.5224979829        0.9274738847        0.4413264174
 H         -2.0336623648       -2.6430140686        1.1847465435
 H         -3.6778297045       -3.8653890913        2.5190697971
 H         -6.0468672921       -3.1429635654        2.5475477000
 H         -6.7184654854       -1.1387954899        1.2392112842
 H         -5.8200358459        2.3861653507       -1.5050814729
 H         -4.3084632474        3.7215836194       -2.9578086780
 H         -1.9550450653        3.0023759521       -3.2357826076
 H         -1.1244550024        1.0268024195       -2.0543087559
 H         -1.5711533041       -2.8122058147       -1.3187275339
 H          0.8517710390       -3.4491972156       -1.3260279395
  56
  -95.3888961900000       0.144090502239536      !
 O          3.5489031715       -2.2488738801       -2.4445590139
 S          3.1811618794       -1.9161964103       -1.0956710635
 O          3.3136861846       -2.9491845880       -0.0995024832
 C          4.0943497206       -0.5007546839       -0.5255077887
 C          5.4394645275       -0.4279800520       -0.8321870076
 C          6.2280147103        0.5635312047       -0.2808291919
 C          5.6481968533        1.4597809698        0.6057563561
 C          4.3026534460        1.3967673867        0.9044687181
 C          3.4808898304        0.4203362480        0.3222117167
 N          2.1186332920        0.4051267675        0.5802596342
 C          1.6160175102        1.2215921381        1.6427988693
 C          1.3147020866        0.6219379492        2.8573645589
 C          0.8012006322        1.3860387321        3.8909344984
 C          0.5928565212        2.7436144442        3.7140788379
 C          0.8948617864        3.3406006081        2.5008307914
 C          1.4028700860        2.5823846894        1.4606139765
 C          1.1779407033       -0.2934501732       -0.1573340158
 C         -0.1746826049        0.0533443778       -0.0548508425
 C         -1.1478781540       -0.6266448696       -0.7723757486
 N         -2.4994135625       -0.2757846006       -0.5958758073
 C         -3.0962393228       -0.3577365130        0.6676015851
 C         -2.4195562618       -0.8296654491        1.7855322391
 C         -3.0448877128       -0.8962329283        3.0212612344
 C         -4.3610170827       -0.5061393742        3.1602771686
 C         -5.0621306933       -0.0667594348        2.0475720661
 C         -4.4434000269        0.0003477928        0.8127909832
 O         -5.2162335427        0.4118850994       -0.2432988705
 C         -4.6117883288        0.5075041004       -1.4716993683
 C         -5.3925218649        0.9618157472       -2.5185187642
 C         -4.8452097327        1.1198517988       -3.7828983391
 C         -3.5087275757        0.8405650604       -3.9838349571
 C         -2.7220759975        0.3832049151       -2.9373283806
 C         -3.2636965665        0.1842745615       -1.6737411971
 C         -0.7907475996       -1.6480798665       -1.6541323012
 C          0.5424814408       -1.9790961748       -1.7795429701
 C          1.5068540327       -1.3243578327       -1.0362294495
 H          5.8401641114       -1.1714694404       -1.5031379724
 H          7.2776444480        0.6273458452       -0.5185005956
 H          6.2521985270        2.2249063155        1.0700217229
 H          3.8823188555        2.1077186385        1.5979716627
 H          1.4833897757       -0.4372636631        2.9804246368
 H          0.5644818288        0.9204175709        4.8352881521
 H          0.1928550952        3.3377150353        4.5215107727
 H          0.7299176320        4.3982618462        2.3611819103
 H          1.6327085956        3.0349329432        0.5071323527
 H         -0.4818163511        0.8590112362        0.5936634249
 H         -1.3980847886       -1.1615883774        1.6913427636
 H         -2.4903577984       -1.2623092764        3.8714564479
 H         -4.8511458623       -0.5522863632        4.1197635411
 H         -6.0984457889        0.2232487138        2.1143663183
 H         -6.4270821162        1.1917624817       -2.3205849997
 H         -5.4626474378        1.4705611893       -4.5945630338
 H         -3.0620232712        0.9783715118       -4.9563228568
 H         -1.6749547027        0.1860783202       -3.1053892520
 H         -1.5509903116       -2.1755439826       -2.2077853436
 H          0.8693721707       -2.7667761159       -2.4396726784
  56
  -95.3888351980000       0.135084454288341      !
 O          3.4923982584       -0.4018570910       -2.6664225523
 S          3.2079914836       -1.3702372554       -1.6377354113
 O          3.4920568030       -2.7481570617       -1.9305633467
 C          4.0498680670       -0.8574832813       -0.1588807371
 C          5.3414846879       -1.2987534013        0.0542042395
 C          6.0709088589       -0.8260666893        1.1281913369
 C          5.4858109265        0.1054937667        1.9741678158
 C          4.1911691359        0.5368465549        1.7712801017
 C          3.4316545223        0.0529649598        0.6954632983
 N          2.1140679642        0.4586931989        0.5393275280
 C          1.6780543767        1.5743509820        1.3229472544
 C          1.9115351265        2.8561227363        0.8463827511
 C          1.4983091191        3.9491310117        1.5888182518
 C          0.8513854720        3.7628725078        2.7990687773
 C          0.6191122701        2.4817516631        3.2730327545
 C          1.0339691403        1.3842365847        2.5395996223
 C          1.1672360295       -0.2073612288       -0.2193815205
 C         -0.1959881324        0.0575081794       -0.0369250781
 C         -1.1630061789       -0.6569139641       -0.7277625807
 N         -2.5233699596       -0.3816364270       -0.4799219796
 C         -3.0736612516       -0.6083128909        0.7842302756
 C         -2.3362452385       -1.1438634163        1.8324668786
 C         -2.9167035145       -1.3607689795        3.0732134387
 C         -4.2457593573       -1.0566148885        3.2845342104
 C         -5.0041564278       -0.5492279444        2.2397905571
 C         -4.4307794267       -0.3327150444        1.0005956859
 O         -5.2536082765        0.1416528715        0.0106708302
 C         -4.7007635143        0.3472245684       -1.2296215150
 C         -5.5395129599        0.8280019955       -2.2176097617
 C         -5.0464286429        1.0907636546       -3.4872378096
 C         -3.7079794548        0.8852645971       -3.7531440230
 C         -2.8627251022        0.4008870297       -2.7660893574
 C         -3.3478238880        0.1040573072       -1.4992283036
 C         -0.7997290051       -1.6474829154       -1.6402120660
 C          0.5417536771       -1.8774778461       -1.8655828466
 C          1.5047597911       -1.1685964450       -1.1727059758
 H          5.7483021035       -2.0116112917       -0.6455969328
 H          7.0795144955       -1.1657697524        1.2996136111
 H          6.0437166605        0.4979260486        2.8110245628
 H          3.7583528515        1.2520995804        2.4530497615
 H          2.4157710260        2.9849822332       -0.0994383202
 H          1.6805862452        4.9469405370        1.2194990181
 H          0.5275881291        4.6166707993        3.3745639829
 H          0.1146575468        2.3352803863        4.2159655040
 H          0.8613316758        0.3817083945        2.9026626975
 H         -0.5179131135        0.8232170132        0.6512248189
 H         -1.3024821087       -1.4077792669        1.6738727794
 H         -2.3186225420       -1.7769347139        3.8694176870
 H         -4.7019202756       -1.2213701992        4.2477934829
 H         -6.0503189186       -0.3200926914        2.3646175565
 H         -6.5757742275        0.9952134469       -1.9709787907
 H         -5.7086669625        1.4632979010       -4.2525639847
 H         -3.3053038681        1.1027211448       -4.7303053131
 H         -1.8154861357        0.2591100371       -2.9818833434
 H         -1.5594713040       -2.2069680189       -2.1621772918
 H          0.8790303979       -2.6138964077       -2.5776447627
  56
  -95.3886799857000       0.114623783192013      !
 O          3.5172651881       -2.4940915792       -2.0180018181
 S          3.1715317041       -2.1788040084       -0.6576199257
 O          3.3217432355       -3.2279027046        0.3162911134
 C          4.1102618755       -0.7606466157       -0.1308169471
 C          5.4861012960       -0.8930482006       -0.1645442634
 C          6.3024036906        0.1522466025        0.2197893477
 C          5.7117976613        1.3380537959        0.6328432918
 C          4.3400041556        1.4741910454        0.6658449262
 C          3.4959848756        0.4170396635        0.2882428800
 N          2.1209504257        0.5847637031        0.3391081901
 C          1.6258414766        1.8732823310        0.7226262797
 C          1.4753403641        2.1927564121        2.0649236805
 C          0.9749381493        3.4336773862        2.4201651757
 C          0.6203296622        4.3476321462        1.4415653692
 C          0.7717464836        4.0261037523        0.1027348052
 C          1.2778944468        2.7908354357       -0.2602650467
 C          1.1756639075       -0.3429185718       -0.0625267445
 C         -0.1856638983       -0.0325946863        0.0607375895
 C         -1.1694095080       -0.8943154246       -0.4002071270
 N         -2.5200886312       -0.5168320789       -0.2827600092
 C         -3.4170786272       -1.2991613584        0.4550751681
 C         -3.0251168662       -2.4519094782        1.1238549152
 C         -3.9432111053       -3.2066254563        1.8383387059
 C         -5.2647531782       -2.8157299497        1.9095773423
 C         -5.6640185011       -1.6456815759        1.2816052665
 C         -4.7516694371       -0.8890124399        0.5696517483
 O         -5.2164742865        0.2755690959        0.0107432376
 C         -4.3199167979        1.0464277129       -0.6835866881
 C         -4.8023134875        2.2207314652       -1.2318249804
 C         -3.9702988711        3.0388244292       -1.9809768132
 C         -2.6613639764        2.6587651030       -2.1957053091
 C         -2.1727480987        1.4833313069       -1.6462422657
 C         -2.9804910097        0.6726449634       -0.8581812830
 C         -0.8211353412       -2.1158843011       -0.9788529313
 C          0.5131548672       -2.4575946050       -1.0434123434
 C          1.4937043865       -1.5915953124       -0.5937748538
 H          5.8868075482       -1.8355713006       -0.5030192505
 H          7.3753780907        0.0508908216        0.1958844349
 H          6.3283159098        2.1724007249        0.9321143480
 H          3.9120139807        2.4112681330        0.9852782824
 H          1.7505347554        1.4693319703        2.8175825855
 H          0.8580083637        3.6846291358        3.4634702694
 H          0.2248942464        5.3117218246        1.7226343450
 H          0.4953196893        4.7373604063       -0.6603170470
 H          1.4019336796        2.5273263767       -1.3000417082
 H         -0.4919477228        0.8938098524        0.5205796355
 H         -1.9926290321       -2.7615184714        1.0945562914
 H         -3.6101311214       -4.1017713641        2.3402563484
 H         -5.9840716058       -3.4030206343        2.4577908193
 H         -6.6827615614       -1.2969022511        1.3362918352
 H         -5.8373461061        2.4727601258       -1.0652317000
 H         -4.3547081411        3.9546547686       -2.4011842023
 H         -2.0069609745        3.2695503781       -2.7984863171
 H         -1.1546498045        1.1888345183       -1.8443067982
 H         -1.5856716400       -2.7743863881       -1.3587321459
 H          0.8341943831       -3.4003885295       -1.4572119270
