  56
        -95.74621252
 O          3.4843906432        3.2796225714       -0.8550519613
 S          3.1921698396        1.8942853991       -1.1017391737
 O          3.4431592694        1.3909023454       -2.4286110268
 C          4.0695751322        0.8528824766        0.0419886696
 C          5.3856189458        1.1629274915        0.3258599495
 C          6.1588182783        0.3001502714        1.0786412355
 C          5.5958543011       -0.8910407732        1.5140970637
 C          4.2783570257       -1.1976227350        1.2422602049
 C          3.4692231023       -0.3137970802        0.5129516761
 N          2.1299341427       -0.6025246456        0.2996340539
 C          1.6597580088       -1.9207071546        0.5988951901
 C          1.4714290553       -2.8133909249       -0.4466639124
 C          0.9910793308       -4.0848425978       -0.1849859507
 C          0.7034757733       -4.4648218514        1.1152436320
 C          0.8927147192       -3.5722704887        2.1578898657
 C          1.3668476587       -2.2972590862        1.9038057988
 C          1.1778899137        0.3097351967       -0.1226815240
 C         -0.1804367004        0.0220189527        0.0576715950
 C         -1.1644486570        0.9071626405       -0.3577535673
 N         -2.5169070127        0.5499071673       -0.2024215328
 C         -3.0223664503       -0.6037031991       -0.8131474162
 C         -2.2490708127       -1.4164183245       -1.6328387084
 C         -2.7855766625       -2.5517946603       -2.2206982597
 C         -4.1072476129       -2.8885414959       -2.0121739281
 C         -4.9029030883       -2.0688669904       -1.2261753652
 C         -4.3729378788       -0.9348529830       -0.6386683884
 O         -5.2348481994       -0.1592746373        0.0945090840
 C         -4.7201177142        0.9570669118        0.7046720674
 C         -5.5914203568        1.7069826833        1.4729381770
 C         -5.1391756790        2.8294197890        2.1502795742
 C         -3.8069533314        3.1803513423        2.0690895240
 C         -2.9296217739        2.4321717193        1.2985756614
 C         -3.3741977104        1.3267772878        0.5844089552
 C         -0.8167819280        2.1336944318       -0.9261846666
 C          0.5198826325        2.4354475183       -1.0845268088
 C          1.4981069801        1.5361675127       -0.7029715968
 H          5.7769692525        2.0884221992       -0.0663342726
 H          7.1855212070        0.5378197241        1.3059668129
 H          6.1906405105       -1.5926512934        2.0795607587
 H          3.8705925805       -2.1318742705        1.5943701454
 H          1.7009286669       -2.5029558922       -1.4548639885
 H          0.8421875083       -4.7792740328       -0.9975368035
 H          0.3295100656       -5.4569314636        1.3171623024
 H          0.6659047147       -3.8667041114        3.1714093487
 H          1.5089239160       -1.5895961631        2.7074104242
 H         -0.4831818670       -0.9033445222        0.5224820761
 H         -1.2209124568       -1.1561867796       -1.8267933332
 H         -2.1573535767       -3.1653628588       -2.8477684630
 H         -4.5286689980       -3.7724803030       -2.4638663740
 H         -5.9455969353       -2.2880885117       -1.0611097971
 H         -6.6205160508        1.3909864561        1.5319011008
 H         -5.8267170014        3.4109727854        2.7436673186
 H         -3.4342755082        4.0383664067        2.6068529089
 H         -1.8876420651        2.7083601669        1.2590208276
 H         -1.5851987237        2.8173808528       -1.2499555300
 H          0.8406301993        3.3652468356       -1.5268645741
  56
        -95.74616535
 O          3.3162901814        2.9744632187       -0.2018116560
 S          3.1825331073        1.8837825212       -1.1342134231
 O          3.5449010349        2.1386172559       -2.5019142161
 C          4.1041475321        0.5051533331       -0.4914783846
 C          5.4580902366        0.4538675190       -0.7629272588
 C          6.2524418137       -0.5111304196       -0.1746647736
 C          5.6673042720       -1.4073240719        0.7085541091
 C          4.3138296432       -1.3657891978        0.9725033957
 C          3.4884693516       -0.4113975599        0.3588599125
 N          2.1223442418       -0.4168190174        0.5951805590
 C          1.6236968007       -1.2529559802        1.6451160807
 C          1.3742290696       -2.6016097280        1.4238077022
 C          0.8728848909       -3.3818936358        2.4507074833
 C          0.6171787121       -2.8192703752        3.6907538824
 C          0.8649796415       -1.4743407025        3.9075758498
 C          1.3695438428       -0.6877442457        2.8863224538
 C          1.1806627327        0.2739755846       -0.1478322002
 C         -0.1738362785       -0.0648328203       -0.0338372122
 C         -1.1463075622        0.6052398016       -0.7610185511
 N         -2.4991290261        0.2580396255       -0.5844732693
 C         -3.2592467457       -0.2012649387       -1.6655226793
 C         -2.7006929775       -0.4465637269       -2.9134931843
 C         -3.4824941238       -0.9008714841       -3.9649192995
 C         -4.8311991691       -1.1301039023       -3.7838067068
 C         -5.3965132948       -0.9264465514       -2.5337938416
 C         -4.6204204328       -0.4762380080       -1.4818724921
 O         -5.2425582993       -0.3339458586       -0.2669151002
 C         -4.4757915882        0.0800966082        0.7930241746
 C         -5.1149147170        0.1994022574        2.0132854547
 C         -4.4203831311        0.6443283241        3.1279930537
 C         -3.0890456657        0.9855626802        3.0053534395
 C         -2.4430066443        0.8663554441        1.7841942636
 C         -3.1150312447        0.3910670472        0.6649490115
 C         -0.7891681451        1.6128522989       -1.6585419443
 C          0.5439312959        1.9399955717       -1.7901825572
 C          1.5091354876        1.2922345140       -1.0415146997
 H          5.8602165961        1.1933368426       -1.4374198515
 H          7.3092720952       -0.5558089764       -0.3832541298
 H          6.2736655152       -2.1545727863        1.1980955170
 H          3.8884773356       -2.0772895846        1.6625458317
 H          1.5716844536       -3.0270432679        0.4509379504
 H          0.6781064823       -4.4299466655        2.2806476920
 H          0.2232917735       -3.4306599787        4.4882174635
 H          0.6657410948       -1.0357147319        4.8732830107
 H          1.5679738157        0.3622224398        3.0403505777
 H         -0.4824074783       -0.8580916952        0.6289798627
 H         -1.6450297829       -0.2856458316       -3.0652594453
 H         -3.0228648578       -1.0743610680       -4.9255727638
 H         -5.4450999904       -1.4756015008       -4.6001128254
 H         -6.4422590397       -1.1155398025       -2.3519793516
 H         -6.1617217095       -0.0537295224        2.0668016589
 H         -4.9271730812        0.7328243041        4.0757798132
 H         -2.5386057930        1.3543051738        3.8570221600
 H         -1.4088943244        1.1603532105        1.7018386721
 H         -1.5495199363        2.1310062501       -2.2207066315
 H          0.8713959810        2.7175758110       -2.4618621986
  56
        -95.74606196
 O          3.2644361655        3.0685620825        0.5341451186
 S          3.1617277702        2.1914739580       -0.6040574823
 O          3.5378391995        2.7298627945       -1.8828023351
 C          4.1015988122        0.7212258220       -0.2581106733
 C          5.4676681248        0.7810690451       -0.4589230656
 C          6.2716968928       -0.2927588846       -0.1300443530
 C          5.6803440476       -1.4246116207        0.4127963963
 C          4.3161842722       -1.4908622168        0.6056245641
 C          3.4843447875       -0.4118762283        0.2673446187
 N          2.1134151245       -0.5164942025        0.4454030750
 C          1.6180139770       -1.7223912455        1.0394874512
 C          1.2430862189       -2.7906946857        0.2339847715
 C          0.7396344895       -3.9416804278        0.8128548578
 C          0.6158290869       -4.0288092639        2.1901084044
 C          0.9964808119       -2.9648895953        2.9908207998
 C          1.4967851658       -1.8074764891        2.4186694935
 C          1.1692354844        0.3640218507       -0.0527891667
 C         -0.1916017793        0.0431487121        0.0353065684
 C         -1.1629800034        0.8543938790       -0.5317556847
 N         -2.5136619186        0.4670536784       -0.4430654673
 C         -3.4431177395        1.2744208457        0.2236677363
 C         -3.0890101013        2.4730998420        0.8294345276
 C         -4.0381559665        3.2500524488        1.4764348969
 C         -5.3532357362        2.8367688915        1.5416002991
 C         -5.7156094443        1.6242309400        0.9748403113
 C         -4.7724361597        0.8456266725        0.3299727144
 O         -5.2020305165       -0.3577049925       -0.1725417712
 C         -4.2697503515       -1.1595749684       -0.7788190048
 C         -4.7114757898       -2.3820430785       -1.2510213666
 C         -3.8405004486       -3.2352933098       -1.9114866773
 C         -2.5334161195       -2.8435289948       -2.1159984486
 C         -2.0855126405       -1.6198507625       -1.6422427175
 C         -2.9330377731       -0.7711129926       -0.9410269345
 C         -0.8040968872        2.0312815210       -1.1901710147
 C          0.5279531517        2.3882910499       -1.2232408611
 C          1.4956408813        1.5749128877       -0.6629141355
 H          5.8704929926        1.6900284164       -0.8771461356
 H          7.3378679262       -0.2494295586       -0.2837389072
 H          6.2898704789       -2.2725729509        0.6872566750
 H          3.8855174495       -2.3880378845        1.0214053934
 H          1.3449041508       -2.7100502622       -0.8380059000
 H          0.4419797370       -4.7697221297        0.1880031223
 H          0.2210240871       -4.9272808837        2.6392877562
 H          0.9007313330       -3.0332074400        4.0636937411
 H          1.7925958398       -0.9684762517        3.0300420094
 H         -0.5084590816       -0.8506892005        0.5491059174
 H         -2.0617559571        2.8009509289        0.8047253212
 H         -3.7340939754        4.1797320040        1.9320586148
 H         -6.0960641175        3.4396921311        2.0392196702
 H         -6.7287734953        1.2590644958        1.0271656927
 H         -5.7456090171       -2.6441280044       -1.0961806071
 H         -4.1927346476       -4.1888578622       -2.2711824035
 H         -1.8491712173       -3.4831236355       -2.6519018266
 H         -1.0679393675       -1.3174766201       -1.8315962674
 H         -1.5596662585        2.6479038403       -1.6499057553
 H          0.8565123192        3.3016420101       -1.6933984190
  56
        -95.74604638
 O          3.5142073817        2.7898450354       -1.8526503464
 S          3.2122088460        1.4029319174       -1.6269365876
 O          3.4672639384        0.4845271835       -2.7069188269
 C          4.0662111083        0.8084910974       -0.1860548779
 C          5.3779551336        1.1991123453        0.0038520970
 C          6.1172895050        0.6780725350        1.0478977115
 C          5.5196762575       -0.2491678309        1.8902157013
 C          4.2059698241       -0.6300428782        1.7110267691
 C          3.4376975774       -0.0997016644        0.6631018193
 N          2.1049376640       -0.4624507390        0.5298177613
 C          1.6466151302       -1.5549364493        1.3330918370
 C          1.8564984786       -2.8512713067        0.8859702036
 C          1.4247339676       -3.9191411101        1.6539858684
 C          0.7809271993       -3.6937892029        2.8594912366
 C          0.5704018026       -2.3985776684        3.3028271447
 C          1.0053461075       -1.3260631124        2.5446577564
 C          1.1657261666        0.2279049159       -0.2169860280
 C         -0.1996385538       -0.0318017975       -0.0438209580
 C         -1.1621986048        0.7038528690       -0.7190780671
 N         -2.5235981681        0.4259225568       -0.4843010751
 C         -3.3476282961       -0.0285939369       -1.5189770405
 C         -2.8730895747       -0.2458708428       -2.8060605634
 C         -3.7194414406       -0.6960384513       -3.8082411262
 C         -5.0492993965       -0.9472214066       -3.5389444248
 C         -5.5308734628       -0.7671002179       -2.2507175328
 C         -4.6906402400       -0.3209990831       -1.2477169808
 O         -5.2321420122       -0.2028740502        0.0088383184
 C         -4.4095808583        0.2364793964        1.0142740634
 C         -4.9709783049        0.3612333878        2.2717005466
 C         -4.2141883354        0.8324911965        3.3341094084
 C         -2.9003915239        1.1969606283        3.1221784646
 C         -2.3318860774        1.0710042030        1.8636200570
 C         -3.0648208378        0.5661851562        0.7970016057
 C         -0.7905075907        1.7139205736       -1.6063971384
 C          0.5530357360        1.9355973740       -1.8280904743
 C          1.5111912899        1.2045876836       -1.1515287904
 H          5.7918130877        1.9140363034       -0.6899829289
 H          7.1416643945        0.9781061664        1.1993826985
 H          6.0827362204       -0.6784525863        2.7053737882
 H          3.7651628511       -1.3428893290        2.3903637538
 H          2.3604212341       -3.0116683189       -0.0558944473
 H          1.5927757209       -4.9290258266        1.3092315793
 H          0.4448845535       -4.5288078811        3.4552971570
 H          0.0700832871       -2.2221003031        4.2420404862
 H          0.8512742474       -0.3126597045        2.8842448250
 H         -0.5271846982       -0.8127246221        0.6241281425
 H         -1.8321803087       -0.0707357077       -3.0270517223
 H         -3.3240787173       -0.8511139037       -4.7999461048
 H         -5.7127056988       -1.2928559690       -4.3158244112
 H         -6.5589763536       -0.9741541478       -2.0002827655
 H         -6.0068730022        0.0890705722        2.3961251507
 H         -4.6603083184        0.9233307139        4.3116886641
 H         -2.3053545722        1.5893977592        3.9326717011
 H         -1.3109612830        1.3815792942        1.7063193998
 H         -1.5446468257        2.2941560851       -2.1135232668
 H          0.8956798165        2.6836383266       -2.5252066113
  56
        -95.74596078
 O          3.3377080622        2.7508271384        0.8722378635
 S          3.1660538078        2.1548414477       -0.4286005061
 O          3.5004387799        2.9576477972       -1.5726253982
 C          4.0703987391        0.6250197101       -0.4507288471
 C          5.3931996546        0.6438652688       -0.8485235229
 C          6.1625794066       -0.5005958382       -0.7636459290
 C          5.5845236023       -1.6576251293       -0.2606992288
 C          4.2598318367       -1.6822662084        0.1238921931
 C          3.4609064272       -0.5330207083        0.0272557014
 N          2.1175023683       -0.5920830090        0.3690236051
 C          1.6749817288       -1.7554092992        1.0759234843
 C          1.8140586327       -1.7905677761        2.4557739518
 C          1.3928604723       -2.9063696323        3.1587758176
 C          0.8317057064       -3.9798760502        2.4875097979
 C          0.6936400388       -3.9425126236        1.1093207120
 C          1.1172435025       -2.8332707979        0.3988895703
 C          1.1604877869        0.3256531332       -0.0280180776
 C         -0.2005275390        0.0049616981        0.0533487375
 C         -1.1710642605        0.8774494249       -0.4152694387
 N         -2.5257330083        0.4924540198       -0.3486104286
 C         -2.9852177446       -0.6119520610       -1.0707216634
 C         -2.1588116460       -1.3509418235       -1.9075871297
 C         -2.6502973105       -2.4385401078       -2.6139890504
 C         -3.9774515337       -2.7994908409       -2.5047560463
 C         -4.8231432413       -2.0538758214       -1.6966962050
 C         -4.3386014354       -0.9678330336       -0.9917329071
 O         -5.2434944336       -0.2628785449       -0.2392494945
 C         -4.7789379785        0.8275382575        0.4545809260
 C         -5.6999042797        1.5276728584        1.2111527700
 C         -5.2995950541        2.6213233710        1.9646859766
 C         -3.9713868007        2.9958036689        1.9677759928
 C         -3.0438126543        2.2981411958        1.2086799925
 C         -3.4346203938        1.2202388297        0.4252507067
 C         -0.8152504703        2.1098602596       -0.9632852202
 C          0.5197030899        2.4562284282       -0.9978326882
 C          1.4866441614        1.5837978331       -0.5353807497
 H          5.7915350704        1.5762038858       -1.2165752343
 H          7.1956003101       -0.4923746614       -1.0716545695
 H          6.1723848484       -2.5589129612       -0.1730036292
 H          3.8343511876       -2.5998197800        0.4991099379
 H          2.2521086215       -0.9453465722        2.9648411724
 H          1.5017487115       -2.9352618747        4.2323465352
 H          0.5014103749       -4.8473973086        3.0382573206
 H          0.2560790341       -4.7784092455        0.5850423723
 H          1.0178170715       -2.7964413484       -0.6760240259
 H         -0.5176089382       -0.9333677890        0.4805409101
 H         -1.1247995316       -1.0651886525       -2.0199879549
 H         -1.9842711676       -2.9948620915       -3.2556673191
 H         -4.3647035931       -3.6454391664       -3.0501942140
 H         -5.8698436923       -2.2957122074       -1.6046417125
 H         -6.7261392800        1.1969738073        1.2009654364
 H         -6.0254870856        3.1631527623        2.5499783652
 H         -3.6409527564        3.8326466115        2.5634154786
 H         -2.0060171154        2.5911146846        1.2315746903
 H         -1.5765699761        2.7754185198       -1.3375905115
 H          0.8491471491        3.4061790416       -1.3879102454
  56
        -95.74593438
 O          3.4170296017        3.2965491256       -0.1280718268
 S          3.1821523700        2.0797689978       -0.8583687653
 O          3.4600483909        2.1018487889       -2.2705687947
 C          4.1095648999        0.7518473719       -0.1204490338
 C          5.4821311943        0.9138878504       -0.0807831338
 C          6.2937083404       -0.0875897290        0.4141929486
 C          5.7028259646       -1.2623221750        0.8573091382
 C          4.3340417109       -1.4257722890        0.8226834505
 C          3.4937553252       -0.4103472378        0.3376943981
 N          2.1203688565       -0.5980189318        0.3346474025
 C          1.6262548715       -1.8647402929        0.7859987665
 C          1.3289381294       -2.8535050642       -0.1416558665
 C          0.8333538526       -4.0713245092        0.2904981066
 C          0.6396014600       -4.3021448462        1.6422461016
 C          0.9395665304       -3.3144781742        2.5663070688
 C          1.4308353765       -2.0924325811        2.1418739062
 C          1.1756877256        0.3257065974       -0.0757647707
 C         -0.1864371630        0.0225472727        0.0605009878
 C         -1.1690990177        0.8990019851       -0.3729438745
 N         -2.5210969024        0.5215709826       -0.2594473131
 C         -2.9966438537       -0.6183699518       -0.9160613048
 C         -2.1953478626       -1.3884268928       -1.7497646540
 C         -2.7025865096       -2.5097836668       -2.3885450387
 C         -4.0221367282       -2.8745500404       -2.2164999977
 C         -4.8446409109       -2.0978504467       -1.4143606248
 C         -4.3438831719       -0.9781322963       -0.7760359432
 O         -5.2292809012       -0.2455748696       -0.0271064342
 C         -4.7487997113        0.8725115876        0.6086833363
 C         -5.6498760435        1.5946030627        1.3688134897
 C         -5.2333932334        2.7165788720        2.0697751419
 C         -3.9074721804        3.0955682595        2.0191042300
 C         -3.0002154318        2.3754345084        1.2564928665
 C         -3.4083877400        1.2702237805        0.5209014875
 C         -0.8222663093        2.1323271715       -0.9260204601
 C          0.5143291669        2.4543137075       -1.0297063880
 C          1.4946598208        1.5686211676       -0.6196061965
 H          5.8839509977        1.8436341505       -0.4516766634
 H          7.3640943792        0.0365029625        0.4470943437
 H          6.3170434922       -2.0657639882        1.2353963623
 H          3.9061226132       -2.3523206186        1.1712834504
 H          1.4840730342       -2.6600958795       -1.1922073823
 H          0.5965545551       -4.8393856771       -0.4298754838
 H          0.2538050359       -5.2530691462        1.9764526375
 H          0.7885683241       -3.4945584915        3.6196047236
 H          1.6667346716       -1.3126093713        2.8506078190
 H         -0.4942645949       -0.9118267839        0.5029542910
 H         -1.1683259725       -1.1036264450       -1.9135743008
 H         -2.0541223957       -3.0897087677       -3.0270747010
 H         -4.4215385690       -3.7469762095       -2.7088872517
 H         -5.8860316103       -2.3402610391       -1.2753705644
 H         -6.6737611613        1.2583706077        1.4025301022
 H         -5.9442214797        3.2765736078        2.6564629676
 H         -3.5629500137        3.9539855967        2.5745949692
 H         -1.9638366790        2.6733953737        1.2398746258
 H         -1.5892840672        2.8075406118       -1.2698473589
 H          0.8371941651        3.3950676455       -1.4465853961
  56
        -95.74591579
 O          3.4782943509        3.0166423493       -1.2105023302
 S          3.2167219517        1.6307006466       -1.4939141577
 O          3.4868053007        1.1734721959       -2.8317001717
 C          4.1218913025        0.6188033592       -0.3421162459
 C          5.4964896090        0.7672373087       -0.3490934316
 C          6.2873032488        0.0307918851        0.5105373464
 C          5.6718166488       -0.8542469603        1.3842937368
 C          4.3010177423       -1.0033435884        1.3952680024
 C          3.4836443478       -0.2695302139        0.5200882723
 N          2.1093890558       -0.4478854983        0.5524943918
 C          1.5819904708       -1.3431266551        1.5388479058
 C          1.5134151940       -2.7051708458        1.2807594719
 C          0.9809883352       -3.5555559271        2.2346203705
 C          0.5134152067       -3.0488014183        3.4359917956
 C          0.5832509292       -1.6890478108        3.6908798878
 C          1.1205722378       -0.8336016693        2.7457131419
 C          1.1831908081        0.2507078358       -0.2022213063
 C         -0.1790307099       -0.0508883672       -0.0676825716
 C         -1.1509775329        0.6733462693       -0.7411747034
 N         -2.5062287219        0.3503478337       -0.5422078189
 C         -3.3092113516       -0.0481167745       -1.6180682911
 C         -2.8152920408       -0.1735013163       -2.9103728338
 C         -3.6423053264       -0.5628134320       -3.9531889388
 C         -4.9724997369       -0.8476988036       -3.7213035228
 C         -5.4715854627       -0.7669232960       -2.4301165964
 C         -4.6502072012       -0.3809800382       -1.3869520066
 O         -5.2093504707       -0.3640981261       -0.1332589700
 C         -4.4031154746       -0.0007297335        0.9146345960
 C         -4.9794821775        0.0016523652        2.1716377159
 C         -4.2437607682        0.3929381902        3.2799527882
 C         -2.9369802896        0.8038632334        3.1146368284
 C         -2.3542753370        0.8011099644        1.8565640647
 C         -3.0633687532        0.3724256329        0.7411639834
 C         -0.7871262251        1.7127985404       -1.5987920912
 C          0.5538917655        1.9722513279       -1.7875226126
 C          1.5216349994        1.2564588948       -1.1058186940
 H          5.9164974839        1.4767826875       -1.0445208914
 H          7.3593913659        0.1435915825        0.5058683122
 H          6.2675811069       -1.4368535520        2.0708991427
 H          3.8527178834       -1.6945653324        2.0913760860
 H          1.8764655346       -3.0865111822        0.3382392858
 H          0.9276089684       -4.6152764158        2.0364335823
 H          0.0934900058       -3.7144234346        4.1745363117
 H          0.2188075679       -1.2933456364        4.6263726751
 H          1.1818904869        0.2283152965        2.9315374979
 H         -0.4954563111       -0.8603280045        0.5712009624
 H         -1.7739440279        0.0267119935       -3.1059647869
 H         -3.2314136965       -0.6429454200       -4.9476218047
 H         -5.6214837779       -1.1437793595       -4.5300206449
 H         -6.4992894493       -1.0055477626       -2.2079501253
 H         -6.0107168092       -0.3007107622        2.2593643472
 H         -4.7008957575        0.3876952975        4.2567281262
 H         -2.3577246485        1.1372295887        3.9619718625
 H         -1.3401423724        1.1486264458        1.7414611561
 H         -1.5445889006        2.2908789243       -2.1032941561
 H          0.8891195094        2.7469773566       -2.4587742720
