78
 energy: -118.022547309562 gnorm: 0.000060009195 xtb: 6.7.1 (edcfbbe)
C            0.88589308226863       -2.55993123520663       -2.04028542765918
C            1.75265044272450       -3.35984428381092       -1.05572132737547
C            3.03600894637108       -3.80285012241495       -1.78041125026399
C            1.03478961684064       -4.64477227709223       -0.58858895869822
C            0.02481253219646       -4.50804661068910        0.56748135073390
C           -1.29763005194422       -3.91227273258557        0.11964501160218
C           -2.26332928781432       -4.73056406699172       -0.45882640375320
C           -3.47711426421485       -4.21105725029371       -0.87960598262867
C           -3.74758517226997       -2.86334015209439       -0.73563378354458
C           -2.78784139039499       -2.02982171220233       -0.16640300258216
C           -3.02217292572440       -0.59210215603035       -0.03351344675485
N           -4.26318228506718       -0.13558973161487       -0.17406443282401
C           -4.41422850040223        1.18089090095176       -0.04362035670735
C           -5.76609021039522        1.72958024119844       -0.15609082405494
C           -5.96782769160963        3.10913235153093       -0.15027072995540
C           -7.24675158198995        3.62255867421288       -0.24985380416938
C           -8.33350227562077        2.76751536499671       -0.35490316037990
C           -8.13909688782469        1.39454128418138       -0.36151111085887
C           -6.86258429818247        0.87493173566960       -0.26361470804127
N           -3.41307451126887        2.02801224698771        0.18242801743177
C           -2.20323115018107        1.48473409962150        0.29580190012044
C           -1.06155656167521        2.37103442642427        0.52208256249963
C            0.23528950819373        1.85836384378946        0.50115344870335
C            1.31553734578316        2.69497627386385        0.70409500621809
C            1.11246295213436        4.04726252309810        0.93384666490964
C           -0.17469257866961        4.56325675059397        0.95872749805822
C           -1.25893773662747        3.73186217651483        0.75237728685566
N           -1.96585943768558        0.17875577619142        0.21103852916898
C           -1.57487292084177       -2.56221598302167        0.26377881001081
C            0.61564923588563       -3.72591626695580        1.69467700601233
C            1.55825488085239       -2.79531693496523        1.43914584289837
N            2.13366404137705       -1.91335851493225        2.33010872377365
C            2.94679747510383       -1.03304110231599        1.65942365137217
C            3.67143156640337        0.00877267309041        2.14472985310146
C            4.42523315059083        0.76587532843799        1.21174567330601
C            4.39421686903885        0.40834293247980       -0.20393394994004
C            3.67662981604022       -0.63982840146502       -0.67345354599355
C            2.92253647748955       -1.41355717961200        0.25670902777959
C            2.10050498616905       -2.51087627848438        0.13028201744363
C            5.24145744352665        1.37138156736400       -0.89109783472363
C            5.57804722289763        1.52579511522695       -2.21873126763678
C            6.43141359242423        2.56632716425949       -2.57416970042069
C            6.93372927171183        3.43235585976630       -1.61482663814747
C            6.60141755064967        3.28866372090933       -0.27438251470272
C            5.75236782364582        2.25662805134332        0.09363101048713
C            5.23452706278490        1.86320103572634        1.37585607304887
H            0.66204257872171       -3.16764592121946       -2.91462774327587
H            1.40983863962145       -1.66479591816375       -2.36623143598904
H           -0.05059336647883       -2.25655844199297       -1.58192552381878
H            3.52490589055632       -2.96435316029934       -2.26511341332642
H            2.79112806168394       -4.54051889618745       -2.54162402484673
H            3.73840706619685       -4.24715981603132       -1.07829653355281
H            0.53311021710023       -5.09559596684106       -1.44624002144655
H            1.80337063444225       -5.34206770449841       -0.24640359554585
H           -0.19477313908593       -5.52373547994377        0.91886518631890
H           -2.06494624432011       -5.78608634302822       -0.57797205370651
H           -4.21548787622172       -4.86283690310606       -1.32276636322930
H           -4.68421653085184       -2.43970629629309       -1.06280346996698
H           -5.11035558932815        3.75906320186405       -0.06992307259631
H           -7.39856247175600        4.69177198998079       -0.24621360546354
H           -9.33211797968956        3.17142955777682       -0.43185102866903
H           -8.98562893812517        0.72885350061248       -0.44247533313917
H           -6.69206621735160       -0.19052405824937       -0.26304026897642
H            0.37738874077068        0.80470851387746        0.31884390272174
H            2.31659748121062        2.29241858343749        0.68499463310689
H            1.95974027069140        4.69794090547718        1.09233904122073
H           -0.33183305082912        5.61649681580562        1.13889759036663
H           -2.26723446050735        4.11586377969533        0.76897533984830
H           -0.85712941722050       -1.89478651780587        0.71516719740511
H            0.20772913358299       -3.86085974307781        2.68456591452497
H            1.90564626146904       -1.85632024794995        3.30712826320228
H            3.67607918560310        0.26800791611227        3.19300486054621
H            3.66078464149891       -0.87797984200962       -1.72535997736086
H            5.19180321779980        0.85640470152553       -2.97434998915991
H            6.70611569650516        2.70112614090172       -3.61069208564476
H            7.59558345963364        4.23247719459357       -1.91627977296828
H            6.99795031146072        3.96898643525386        0.46643433820713
H            5.45366731625841        2.36135161988760        2.30371632125994
