78
 energy: -118.022847802204 gnorm: 0.000074118901 xtb: 6.7.1 (edcfbbe)
C            3.28435670189587        0.27198927960202        2.28133271202951
C            2.66681091695147        0.40671786624738        0.88399292804385
C            2.53220119197210        1.89616087743892        0.52849641286827
C            1.28497658322134       -0.27600422429310        0.91694461129587
C            0.58426883784060       -0.36564865536219       -0.44831674736810
C           -0.68480480723684       -1.17042516613424       -0.31085435979687
C           -0.62937667797859       -2.55805954065810       -0.21389992894393
C           -1.78693769617832       -3.30471133759662       -0.07205325581687
C           -3.01761832811555       -2.67799141513427       -0.02365727882099
C           -3.09044615916934       -1.28936082818541       -0.11612961658233
C           -4.38649088453321       -0.61243831316562       -0.07222244806075
N           -4.40339521738333        0.71283326944789       -0.19399812906897
C           -5.60305503797570        1.28707203513356       -0.15776307693525
C           -5.67141723289437        2.74316447578832       -0.28945425302009
C           -6.90313603235229        3.39536510565894       -0.25219183885908
C           -6.96393795397876        4.77002263476429       -0.37832450205506
C           -5.79986632182552        5.50568864502349       -0.54188658489609
C           -4.57164611871564        4.86311235234028       -0.57878626546255
C           -4.50469339197906        3.48875760387142       -0.45400019384362
N           -6.74411934389914        0.61809694578156       -0.01113347404329
C           -6.63434954149931       -0.70275616588700        0.10899916978637
C           -7.86201182789216       -1.48191188397063        0.27570275270743
C           -9.10530294946497       -0.85269634418215        0.22736498576699
C          -10.26246898849086       -1.59089120892484        0.38573337609326
C          -10.19085900622415       -2.95992529742971        0.59451070253586
C           -8.95733973104539       -3.59161917109232        0.64366352754237
C           -7.79674435463374       -2.85890836149958        0.48495119156145
N           -5.47703617757748       -1.35872130762043        0.08482790918957
C           -1.92006633009629       -0.54618449619138       -0.25826329268620
C            1.50185820137745       -0.96398258905153       -1.46837664787058
C            2.83777031837250       -0.90086194112683       -1.29296608155165
N            3.82057211342969       -1.39132012094912       -2.12693079784867
C            5.06076286189595       -1.07893623474178       -1.62728712557818
C            6.28828034285766       -1.35758260032347       -2.13906196068307
C            7.41598016118152       -0.89860465863440       -1.41175360862184
C            7.22071051214795       -0.15891906898847       -0.16843673703202
C            5.99254263814615        0.11205365617016        0.33309531958199
C            4.85108574953745       -0.35040034202971       -0.38581125723424
C            3.49461212209662       -0.25708481054898       -0.17672933690786
C            8.54796116943766        0.17470756617964        0.32625816500845
C            8.97377394441805        0.85460114031332        1.44698721113589
C           10.34122274724236        1.01616227327178        1.65071345947312
C           11.25909125265399        0.50439720697615        0.74622390806422
C           10.84326537258372       -0.18356658763392       -0.38597646902632
C            9.48426003325119       -0.35280782148377       -0.60067395492986
C            8.76223395260002       -1.00685793048861       -1.65810577775267
H            2.55070518854099        0.55016443487690        3.03523312607527
H            4.14299297826014        0.92555579429918        2.39681253270996
H            3.59838731230582       -0.75271263034520        2.46645294209483
H            3.50916179619648        2.37369288874590        0.54728289992278
H            1.88580813900328        2.39457066060120        1.24744143129052
H            2.11554565791178        2.02239070340124       -0.46743893796149
H            1.41633451347765       -1.29106557949968        1.29926947146551
H            0.63616691416282        0.26034128242522        1.61187502591411
H            0.30504141403332        0.64618803909993       -0.77111620331343
H            0.33010552045277       -3.05329546332083       -0.25517081717773
H           -1.72875606710746       -4.38082300895191       -0.00051154380116
H           -3.92995425542006       -3.24327057606015        0.08234159408891
H           -7.79849808183392        2.80766284049137       -0.12266602481522
H           -7.92048782649246        5.27059100768544       -0.34939012898856
H           -5.84968711695679        6.58004230521511       -0.64030803317412
H           -3.66523872029750        5.43633203714228       -0.70589902441570
H           -3.55808291434146        2.97214394886641       -0.48111109827260
H           -9.14200173067181        0.21298474782292        0.06303928161254
H          -11.22333839522930       -1.09929063523832        0.34712615421093
H          -11.09667552007140       -3.53471396949210        0.71877097167561
H           -8.90227740124968       -4.65782564849489        0.80676819138050
H           -6.82838215101581       -3.33327953927779        0.52154829761154
H           -1.99941448299792        0.52794733977309       -0.32993955804788
H            1.06521321160273       -1.42015599158882       -2.34358152131813
H            3.65179030844614       -1.87496633995768       -2.99133042932938
H            6.41578539793212       -1.89998064483109       -3.06430871165706
H            5.87537457273052        0.66711089580685        1.24940875505388
H            8.26654551150983        1.25760157525976        2.15810024501361
H           10.69211165419299        1.54669640593728        2.52453678160940
H           12.31627636239232        0.64354313174412        0.92608664599030
H           11.56708683771325       -0.57943068281600       -1.08490582713197
H            9.22088575883813       -1.49647484000018       -2.49917282964195
