78
 energy: -117.988783338433 gnorm: 0.000073160330 xtb: 6.7.1 (edcfbbe)
C            0.86298050057709       -2.58041214360875       -2.07571351718280
C            1.73242355515890       -3.37126593047643       -1.08567830606266
C            3.01345398693156       -3.81596489104483       -1.81345822811014
C            1.01696550890280       -4.65463118571651       -0.60794905567470
C            0.02073704976054       -4.51912805257077        0.56249310097089
C           -1.30706777039950       -3.92262254013144        0.12839275032375
C           -2.28762440635124       -4.74310067958155       -0.42114216946592
C           -3.50795295686332       -4.22282153057204       -0.82233039489531
C           -3.76915294824721       -2.87259537816771       -0.68881980718067
C           -2.79424083936100       -2.03650125324374       -0.14838775252341
C           -3.02333657941733       -0.59817656260659       -0.02252499881423
N           -4.26458564811774       -0.13929891642667       -0.15974372212226
C           -4.41321749715806        1.17733635805958       -0.03216961701642
C           -5.76460115166619        1.72798081127839       -0.14279189528852
C           -5.96448260198833        3.10778654371097       -0.13530799231940
C           -7.24267356554280        3.62324473254484       -0.23379099555321
C           -8.33073134185973        2.77000215899185       -0.33976189207179
C           -8.13822867591266        1.39677365162879       -0.34815919220925
C           -6.86246184991135        0.87521726243833       -0.25098534420499
N           -3.41033752996751        2.02411768116084        0.18923631386130
C           -2.20080365103611        1.47860469556495        0.29760462155795
C           -1.05697053616944        2.36457056422464        0.51552425778491
C            0.24048524789062        1.85686974520420        0.45569849261829
C            1.32217150326190        2.69421047830503        0.64833733623429
C            1.12024766582746        4.04105050929638        0.90879886197167
C           -0.16769705628813        4.55162079327736        0.97298907600893
C           -1.25350120407332        3.72017270043999        0.77513420735322
N           -1.96488425858879        0.17267205214553        0.21514860869811
C           -1.57517127857900       -2.56982789200931        0.26348468843115
C            0.62188448824726       -3.74160304665654        1.68340011096768
C            1.56098924907631       -2.79081868149179        1.38955591704142
N            2.12508365921771       -1.89583133738894        2.27981077085978
C            2.93946564974016       -1.03730374332745        1.60671433746896
C            3.67795490875794        0.02485517298091        2.11163752578119
C            4.42091052352221        0.75883699964436        1.19514472950420
C            4.40859730742717        0.42453047525234       -0.20243170059157
C            3.67983745189890       -0.63546581042836       -0.69014019058098
C            2.92906732653359       -1.40080145258437        0.22043929493980
C            2.08075182999135       -2.52074968253580        0.09829834804779
C            5.25616357590939        1.38559057194146       -0.86704393999045
C            5.60938601217449        1.55606165039943       -2.19198473483881
C            6.46277298689429        2.59605402900883       -2.53118435203163
C            6.96535116029044        3.46782885449646       -1.56003319184783
C            6.62883965518949        3.32246678932462       -0.23344298027264
C            5.76699506399416        2.27850121614807        0.13659193047474
C            5.25868639332430        1.89534650447562        1.38384322136855
H            0.64944971109427       -3.18640951609977       -2.95428504618840
H            1.38160430633648       -1.67950981070271       -2.39495687307558
H           -0.07859914337460       -2.28631884385257       -1.62155806138979
H            3.50528730127269       -2.97309057612232       -2.28796951045226
H            2.76824749657364       -4.54552020465362       -2.58269644384806
H            3.71333903354656       -4.26850567599979       -1.11403204157698
H            0.50258859745153       -5.10610599887613       -1.45799400462918
H            1.78852120451427       -5.35324715707292       -0.27524822403011
H           -0.19819163519981       -5.53602820059766        0.91209934845773
H           -2.09583950882658       -5.80064273990273       -0.53343518210096
H           -4.25805052579791       -4.87640944991984       -1.24281041914781
H           -4.71023371357677       -2.44832143784046       -1.00205402254855
H           -5.10591768441594        3.75628330872196       -0.05474591717864
H           -7.39294363034366        4.69269302070222       -0.22868826284307
H           -9.32879560773049        3.17542525568803       -0.41604174294786
H           -8.98571079003912        0.73236328286458       -0.43006003321788
H           -6.69347729890416       -0.19048633105810       -0.25196656091214
H            0.38200514181438        0.80753674119027        0.24936616539935
H            2.32346920333814        2.29544402622448        0.59510532111476
H            1.96855672735709        4.69226318030037        1.05961362407971
H           -0.32431178176354        5.60063876223927        1.17684326313972
H           -2.26255431644366        4.09984769462520        0.82132336905190
H           -0.84446377620971       -1.90171986454469        0.69198471346689
H            0.23366270669105       -3.86973113764183        2.68092339208047
H            1.91668624629680       -1.85389136495454        3.26341716842936
H            3.66602831943456        0.27259468721312        3.16294381230784
H            3.67713771591067       -0.86191198946395       -1.74434648025934
H            5.23037060091952        0.89192260237846       -2.95571571760786
H            6.74709099103637        2.73838092913409       -3.56402887492972
H            7.62829803802084        4.26575971979102       -1.86341934153037
H            7.01735572545334        3.99646588710203        0.51683496212270
H            5.45791918456147        2.37260272827201        2.32627821198080
