  38
        -61.95655124
 C         -3.4751905048       -3.1992727302       -0.3826990405
 C         -2.1067003440       -3.4438133231       -0.5246313676
 C         -1.1969557361       -2.4184527717       -0.4129537900
 C         -1.6224584636       -1.1083363473       -0.1585102179
 C         -3.0176783745       -0.8633560216       -0.0789880029
 C         -3.9230335480       -1.9088639851       -0.1740018669
 O         -3.5135311876        0.3935906369        0.0737974795
 C         -2.6358518592        1.4303515696        0.0932788797
 C         -3.1645882867        2.7139694814        0.1678664388
 C         -2.3235399809        3.8081229057        0.1993793444
 C         -0.9436809307        3.6247524412        0.1737413636
 C         -0.4057833738        2.3546865058        0.1150622998
 C         -1.2358210858        1.2348800584        0.0544483024
 N         -0.7391740479       -0.0576898133       -0.0073128141
 C          0.6276078544       -0.3050739472        0.2027867580
 C          1.0253346266       -1.1665122947        1.2187318799
 C          2.3758065495       -1.3578709846        1.4471903768
 C          3.3303207615       -0.6980801496        0.6335306371
 C          4.7097218552       -0.8527586119        0.7633157532
 C          5.5868261597       -0.1789405794       -0.0794424714
 C          5.0977533075        0.6478059661       -1.0769522699
 C          3.7327085383        0.8118963321       -1.2471649099
 C          2.8253004110        0.1511572659       -0.4040033535
 N          1.5112955554        0.3171864672       -0.5959500859
 H         -4.1817703139       -4.0101968633       -0.4530023393
 H         -1.7585255951       -4.4448157629       -0.7246246211
 H         -0.1421279771       -2.6089185161       -0.5322632106
 H         -4.9742266319       -1.6834741396       -0.0900876967
 H         -4.2368098141        2.8222377557        0.2025816814
 H         -2.7384720329        4.8019727603        0.2557548132
 H         -0.2854594908        4.4781925861        0.2104610992
 H          0.6623156955        2.2157423179        0.0926954038
 H          0.2760863979       -1.6301903825        1.8432770584
 H          2.7091403110       -1.9873261687        2.2570044605
 H          5.0913058898       -1.5160845206        1.5260136929
 H          6.6520575374       -0.3064346792        0.0456209451
 H          5.7818603765        1.1701799561       -1.7300208255
 H          3.3387996442        1.4692534094       -2.0070265618
  38
        -61.95508904
 C         -3.2115058019       -3.2145299392       -0.7072067210
 C         -1.8201491177       -3.3663838044       -0.7495073550
 C         -0.9937685590       -2.2879077639       -0.5274849947
 C         -1.5324081013       -1.0253225102       -0.2731228912
 C         -2.9461744711       -0.8751008241       -0.2469307825
 C         -3.7664809844       -1.9778016638       -0.4566788375
 O         -3.5327137319        0.3261943286       -0.0127143604
 C         -2.7369714657        1.4089864717        0.1795233270
 C         -3.3416863714        2.6401871344        0.4019772043
 C         -2.5690730524        3.7671018593        0.5864884977
 C         -1.1715933121        3.6761407404        0.5491821686
 C         -0.5571312441        2.4619867475        0.3470263594
 C         -1.3183769583        1.3054064028        0.1614509347
 N         -0.7407413747        0.0715661030       -0.0240219610
 C          0.6408890660       -0.0989563883        0.2402180885
 C          1.0419721041       -0.2856344433        1.5572157689
 C          2.3915716087       -0.4448967219        1.8233919754
 C          3.3275466677       -0.4045456297        0.7640463641
 C          4.7091544916       -0.5379299660        0.9353244656
 C          5.5680059585       -0.4805301989       -0.1484809447
 C          5.0657816419       -0.2884192826       -1.4269480544
 C          3.7043532962       -0.1518646974       -1.6344173858
 C          2.8139674325       -0.2056269627       -0.5559186195
 N          1.4955658982       -0.0628892747       -0.7793772398
 H         -3.8512491271       -4.0667423915       -0.8712800859
 H         -1.3929676403       -4.3350914037       -0.9534117834
 H          0.0786756708       -2.3985357662       -0.5532382508
 H         -4.8347300802       -1.8349919585       -0.4192328512
 H         -4.4189749979        2.6846668260        0.4222233640
 H         -3.0417932447        4.7209305012        0.7565780248
 H         -0.5733169508        4.5632489149        0.6818151603
 H          0.5183682597        2.3841290036        0.3212681798
 H          0.3004997705       -0.3069160178        2.3414305678
 H          2.7333124665       -0.5975184141        2.8351375434
 H          5.0973094098       -0.6845182346        1.9332258907
 H          6.6322260323       -0.5848587135        0.0042086582
 H          5.7399161415       -0.2436300434       -2.2698962449
 H          3.3010247496       -0.0032011397       -2.6237544088
