  69
        -99.59633441
 C          6.2735407557        0.1028423356       -0.1405665288
 C          4.9249665236        0.3384976492        0.5634292255
 C          5.1427591362        1.0838718923        1.8927833221
 C          4.2869428639       -1.0036445881        0.8638530479
 C          4.9519153282       -1.9048062667        1.6836936613
 C          4.4057859040       -3.1275031337        2.0271032848
 C          3.1478271277       -3.4594460932        1.5582688663
 C          2.4663861086       -2.5834869481        0.7398928630
 C          3.0309115636       -1.3612114047        0.3626268058
 N          2.3307737221       -0.5080493269       -0.4763343323
 C          1.0573345738       -0.8997023095       -0.9580216611
 C          0.9302881046       -1.9181804192       -1.9054849875
 C         -0.3479856075       -2.2557042705       -2.3053995602
 N         -1.4406104448       -1.6464688984       -1.8827593244
 C         -1.3283468632       -0.6506899074       -1.0054726731
 N         -2.4751530631       -0.0414150452       -0.5568427885
 C         -2.4417596553        1.2071149329        0.0876861042
 C         -1.6739343376        2.2481324954       -0.4239337109
 C         -1.6949852701        3.4876271825        0.1842411647
 C         -2.5056209664        3.6990598301        1.2859822363
 C         -3.2927728404        2.6714056005        1.7774663534
 C         -3.2689225029        1.4136814240        1.1949100752
 C         -4.0655155429        0.2212013397        1.6847312179
 C         -5.1534730639        0.6132007957        2.6832656349
 C         -3.0997450603       -0.7574281566        2.3847170752
 C         -4.6190232558       -0.4592415518        0.4451655120
 C         -5.9077862298       -0.9592911022        0.3511922626
 C         -6.3370332562       -1.6131146284       -0.7915530739
 C         -5.4784210831       -1.7650117990       -1.8643081805
 C         -4.1945844206       -1.2554122498       -1.8018475188
 C         -3.7601524062       -0.6136987035       -0.6500692614
 C         -0.0781662998       -0.2704874602       -0.4868520798
 C          2.8276262822        0.7356289765       -0.8353926923
 C          2.1141396665        1.5385259197       -1.7309036971
 C          2.5726994941        2.7884022926       -2.0889858480
 C          3.7648147655        3.2592247493       -1.5696515526
 C          4.4933880690        2.4512405067       -0.7166041721
 C          4.0546757522        1.1892384600       -0.3403441360
 H          6.7733590818        1.0449545382       -0.3464930188
 H          6.1117092145       -0.4136996757       -1.0848264292
 H          6.9311055642       -0.5046593699        0.4744814133
 H          5.6020313333        2.0535486001        1.7231419275
 H          4.1872953905        1.2383414982        2.3908844253
 H          5.7863064235        0.5135393468        2.5560866751
 H          5.9259403997       -1.6488576177        2.0719603537
 H          4.9522144755       -3.8065312054        2.6632881390
 H          2.6912950843       -4.3993197752        1.8304271110
 H          1.4808330195       -2.8479815409        0.3910652849
 H          1.7992495867       -2.4243122298       -2.2929482554
 H         -0.5177073080       -3.0516095388       -3.0184046954
 H         -1.0685132611        2.0839763849       -1.3021384502
 H         -1.0893697270        4.2889083385       -0.2113155650
 H         -2.5312829119        4.6676029040        1.7615564810
 H         -3.9242876979        2.8640611678        2.6292695899
 H         -4.7073110974        1.0822489329        3.5565763298
 H         -5.8654258794        1.3018847057        2.2343655811
 H         -5.6829007897       -0.2712790384        3.0275727286
 H         -2.6463268601       -0.2771873511        3.2496619136
 H         -2.3079581572       -1.0791474744        1.7146090483
 H         -3.6445149835       -1.6381119125        2.7182108893
 H         -6.5946260756       -0.8506082747        1.1746257586
 H         -7.3434030764       -2.0010785464       -0.8391525596
 H         -5.8096691820       -2.2694103579       -2.7594238985
 H         -3.5214485989       -1.3589190918       -2.6343921943
 H          0.0042501822        0.4933072003        0.2693263116
 H          1.1959739478        1.1717118291       -2.1612800572
 H          1.9994629413        3.3900146299       -2.7786641885
 H          4.1323145946        4.2381356926       -1.8365360588
 H          5.4341835415        2.8197049732       -0.3372248090
