  45
  -91.0460009512000       0.284609336826290      !
 C          0.2815572778        3.2077391483       -1.7318702949
 C         -0.4851415186        2.5808360889       -0.6239367885
 S         -2.0794948756        3.1900582815       -0.2905929494
 C         -2.3260871703        2.0081641613        0.9613830411
 C         -3.4543712339        1.8571098262        1.7522145395
 C         -3.4503981829        0.8675891300        2.7131547455
 C         -2.3256508857        0.0669258719        2.9033904806
 C         -1.2030163128        0.2236371685        2.1210982048
 C         -1.2006559951        1.1830167470        1.1090496069
 C         -0.1586613938        1.5188241363        0.1704119331
 C          1.0413330160        0.7015100103        0.0677754777
 C          1.0617934393       -0.6505551742       -0.0107695636
 C         -0.0910975391       -1.5139585212       -0.1845083300
 C         -0.3442292347       -2.6491286116        0.5384071797
 C          0.4968535189       -3.3201419157        1.5626436066
 S         -1.9161516915       -3.3054967950        0.2092837873
 C         -2.2454168194       -2.0684607118       -0.9685388186
 C         -3.3920764429       -1.9376858942       -1.7358522143
 C         -3.4430427026       -0.9187876097       -2.6643249584
 C         -2.3495476425       -0.0756389168       -2.8512755389
 C         -1.2108924216       -0.2091801619       -2.0877818084
 C         -1.1599701680       -1.1874062963       -1.0949830639
 C          2.4775075608       -1.1661144798        0.0792928493
 F          2.7236403099       -2.2422686671       -0.6953875961
 F          2.8308102303       -1.5334686675        1.3421458624
 C          3.3148005838        0.0759547628       -0.3231244026
 F          4.5760190558        0.0628688397        0.1278973421
 F          3.3760802652        0.1631387240       -1.6734841920
 C          2.4448129299        1.2410431713        0.2166880973
 F          2.7434132449        1.4720697206        1.5250718002
 F          2.7044005281        2.4028691732       -0.4162299746
 H         -0.4018574005        3.5932487461       -2.4856530670
 H          0.9627562519        2.4981665666       -2.1958382288
 H          0.8749966274        4.0420517007       -1.3563879124
 H         -4.3067532265        2.5036624777        1.6151598190
 H         -4.3199041101        0.7236580852        3.3358999248
 H         -2.3331743319       -0.6818871347        3.6807229447
 H         -0.3222234453       -0.3730014744        2.2973529860
 H         -0.0620101297       -4.1237839799        2.0352732728
 H          0.8212546965       -2.6192261511        2.3310062476
 H          1.3899540560       -3.7450816259        1.1042328107
 H         -4.2135672568       -2.6252281995       -1.6103259543
 H         -4.3272466703       -0.7901966292       -3.2693707524
 H         -2.3930406323        0.6873694488       -3.6135569648
 H         -0.3521046778        0.4154993468       -2.2697376158
  45
  -91.0459558709000       0.271351153385566      !
 C          0.2882729254        3.2012842889       -1.7410540919
 C         -0.4822880408        2.5724418908       -0.6368588581
 S         -2.0834813457        3.1709628401       -0.3168637983
 C         -2.3326526979        1.9875058863        0.9334434480
 C         -3.4675001688        1.8264782359        1.7125568950
 C         -3.4642646270        0.8373992958        2.6741207462
 C         -2.3337767503        0.0479787592        2.8771627317
 C         -1.2048670640        0.2143036799        2.1060007297
 C         -1.2017086521        1.1719587325        1.0922658125
 C         -0.1550918312        1.5134766045        0.1610772915
 C          1.0477564244        0.6993343975        0.0639967322
 C          1.0703852761       -0.6529602521       -0.0162175109
 C         -0.0833996561       -1.5151540850       -0.1883362224
 C         -0.3362095756       -2.6511675574        0.5339134405
 C          0.5132846820       -3.3335487851        1.5436264041
 S         -1.9191790252       -3.2914073621        0.2267829876
 C         -2.2555741513       -2.0455870452       -0.9401579059
 C         -3.4153910301       -1.8964951056       -1.6839338953
 C         -3.4707451775       -0.8741490748       -2.6083493034
 C         -2.3679062228       -0.0484476050       -2.8173774833
 C         -1.2166515355       -0.1996129730       -2.0765352297
 C         -1.1618149727       -1.1777394757       -1.0836989738
 C          2.4866321435       -1.1655292016        0.0814371075
 F          2.7399230714       -2.2415469636       -0.6916488257
 F          2.8336685999       -1.5313814382        1.3466809597
 C          3.3240861715        0.0779808489       -0.3160562493
 F          4.5823855770        0.0668498812        0.1430136082
 F          3.3936403545        0.1652540491       -1.6661460561
 C          2.4489648073        1.2417513261        0.2185876090
 F          2.7416836117        1.4748735055        1.5280816725
 F          2.7087031261        2.4034891554       -0.4143095150
 H         -0.3922574720        3.5878149104       -2.4967971646
 H          0.9713919579        2.4920027865       -2.2031694855
 H          0.8808561355        4.0345395277       -1.3622705769
 H         -4.3246276395        2.4647451351        1.5664260940
 H         -4.3388516687        0.6854783451        3.2877205751
 H         -2.3425157421       -0.6994763292        3.6558495047
 H         -0.3203453395       -0.3739524328        2.2919584281
 H          1.4064054025       -3.7469900374        1.0750000672
 H         -0.0394244304       -4.1470134541        2.0066748334
 H          0.8368318667       -2.6429936857        2.3214836835
 H         -4.2438791184       -2.5726758941       -1.5433206249
 H         -4.3653204867       -0.7301614911       -3.1943308539
 H         -2.4146116583        0.7151698447       -3.5788320400
 H         -0.3514673493        0.4107805893       -2.2759469119
  45
  -91.0459407417000       0.267041508707603      !
 C          0.2933906857        3.2166417421       -1.7252931825
 C         -0.4804252217        2.5731818758       -0.6319278751
 S         -2.0924684821        3.1501884458       -0.3272412019
 C         -2.3402063031        1.9603134830        0.9168817684
 C         -3.4826080060        1.7791246825        1.6804785472
 C         -3.4757116814        0.7893328120        2.6412400842
 C         -2.3338380334        0.0212071496        2.8611508478
 C         -1.1980438478        0.2068567900        2.1046829518
 C         -1.1990439355        1.1619603383        1.0885315330
 C         -0.1480488811        1.5161212239        0.1667562444
 C          1.0559509087        0.7039836408        0.0688456041
 C          1.0745097061       -0.6484967245       -0.0103816598
 C         -0.0842029159       -1.5056699566       -0.1762974494
 C         -0.3463218909       -2.6322697348        0.5566711782
 C          0.4974973587       -3.3096763634        1.5744495835
 S         -1.9345714225       -3.2623384875        0.2544065970
 C         -2.2605428992       -2.0244369615       -0.9235654931
 C         -3.4190202826       -1.8706913477       -1.6686139773
 C         -3.4656529733       -0.8546381144       -2.6003769212
 C         -2.3562314259       -0.0393166646       -2.8154863440
 C         -1.2060611900       -0.1952312921       -2.0739373338
 C         -1.1595838672       -1.1670646418       -1.0746083010
 C          2.4890537785       -1.1663057742        0.0784421508
 F          2.7330199275       -2.2434043342       -0.6958661437
 F          2.8427333533       -1.5335679663        1.3414811090
 C          3.3275391442        0.0744902883       -0.3258787409
 F          4.5892283319        0.0603112909        0.1237422000
 F          3.3873098808        0.1598952093       -1.6765327504
 C          2.4599087768        1.2421259071        0.2131962049
 F          2.7621623592        1.4760683410        1.5202027485
 F          2.7199599862        2.4015659483       -0.4233700251
 H          0.8963001983        4.0352366579       -1.3309734863
 H         -0.3851436398        3.6258219605       -2.4707530677
 H          0.9679019330        2.5100102722       -2.2041259343
 H         -4.3483860288        2.4027283890        1.5225337039
 H         -4.3564383969        0.6209020964        3.2415647220
 H         -2.3390332052       -0.7253800577        3.6406988688
 H         -0.3049201729       -0.3636976135        2.3041459114
 H          1.3883245091       -3.7334387319        1.1111909544
 H         -0.0609753138       -4.1142291363        2.0457486638
 H          0.8253269951       -2.6125282983        2.3447250590
 H         -4.2536379695       -2.5382053649       -1.5228604052
 H         -4.3593353560       -0.7070411874       -3.1868200822
 H         -2.3970949379        0.7200253485       -3.5815169333
 H         -0.3358432801        0.4069291597       -2.2771349716
  45
  -91.0448416890000       8.346206456053691E-002 !
 C          0.4543656836        3.2316498792       -1.6948123728
 C         -0.3860329820        2.6077057918       -0.6391366481
 S         -1.9924161249        3.2317402907       -0.4114683360
 C         -2.3510537276        2.0172021226        0.7796826314
 C         -3.5506812350        1.8440194524        1.4510856025
 C         -3.6423438759        0.8180662799        2.3682436545
 C         -2.5409994597        0.0080684713        2.6386405028
 C         -1.3463297653        0.1888525016        1.9772267079
 C         -1.2461428343        1.1805853138        1.0016619306
 C         -0.1304426535        1.5250322915        0.1558364040
 C          1.0615466479        0.6922424918        0.0883069669
 C          1.0920893390       -0.6590840813       -0.0321903958
 C         -0.0487966386       -1.5407051915       -0.1938717771
 C         -0.2341623439       -2.7130259640        0.4941909054
 C          0.6866128463       -3.4382376430        1.4073123530
 S         -1.8320357645       -3.3559004060        0.2887991526
 C         -2.2749125897       -2.0605424397       -0.7829605434
 C         -3.5020847497       -1.8812277875       -1.4007005927
 C         -3.6463743232       -0.8173876870       -2.2663525805
 C         -2.5635938488        0.0111041705       -2.5535051247
 C         -1.3440579548       -0.1732176085       -1.9399266835
 C         -1.1986152344       -1.1835218626       -0.9889975642
 C          2.5164242137       -1.1597121661        0.0349176276
 F          2.7696625002       -2.2022285511       -0.7836268384
 F          2.8916247932       -1.5676332463        1.2785918688
 C          3.3371200843        0.1055396712       -0.3234254370
 F          4.6071387853        0.0808957918        0.1011922885
 F          3.3711152690        0.2653372510       -1.6686596300
 C          2.4617638244        1.2247933918        0.2931037239
 F          2.7399787851        1.3423260695        1.6226897627
 F          2.7337456210        2.4358590087       -0.2289427621
 H          1.1275580433        2.5052780999       -2.1456842053
 H          1.0614780996        4.0339129014       -1.2748974611
 H         -0.1793907419        3.6595576838       -2.4687581979
 H         -4.3849905400        2.4983375617        1.2528734584
 H         -4.5705658802        0.6514278213        2.8927274168
 H         -2.6263466288       -0.7707036778        3.3811341223
 H         -0.4884746718       -0.4197743148        2.2153437445
 H          1.0096333393       -2.8027582494        2.2314898154
 H          1.5767540448       -3.7695500486        0.8732604808
 H          0.1876940167       -4.3126567617        1.8178580259
 H         -4.3144909018       -2.5636450099       -1.2064845065
 H         -4.5967138902       -0.6431441054       -2.7466816642
 H         -2.6822756066        0.8069202392       -3.2729141679
 H         -0.4993487048        0.4408601043       -2.2044414226
  45
  -91.0443652232000       5.041045329856261E-002 !
 C         -1.3612517169        1.4873730129       -1.6102671303
 C         -1.3590455636        1.7157071560       -0.1435572580
 S         -2.6223810432        2.6866050286        0.5438467996
 C         -1.9282414890        2.5448020090        2.1342367732
 C         -2.4372198695        3.0871372802        3.3033995368
 C         -1.7572048560        2.8554861358        4.4811141524
 C         -0.5981606006        2.0828894193        4.4876693466
 C         -0.0953441566        1.5397142168        3.3251730750
 C         -0.7494777140        1.7785788765        2.1156302899
 C         -0.4428172911        1.3086240987        0.7881373624
 C          0.7258500442        0.5219046880        0.4337589872
 C          0.7571834494       -0.5938690167       -0.3264941771
 C         -0.3805751959       -1.4011103496       -0.7377370305
 C         -1.2923398750       -1.8801171579        0.1610762845
 C         -1.3246648021       -1.6942143527        1.6338608106
 S         -2.5114042108       -2.8626841747       -0.5902954625
 C         -1.8102401397       -2.6085830074       -2.1642325648
 C         -2.2919247647       -3.0949177701       -3.3694054966
 C         -1.6207303343       -2.7552649683       -4.5257813729
 C         -0.4995237175       -1.9291684748       -4.4781803696
 C         -0.0215118443       -1.4446031313       -3.2804949063
 C         -0.6623945927       -1.7997701703       -2.0921948128
 C          2.1869473855       -1.0421234614       -0.5413438655
 F          2.4661928421       -1.6081402121       -1.7297456464
 F          2.5447245056       -1.9686250680        0.3916200860
 C          2.9816016249        0.2685711018       -0.3083987211
 F          4.2686183101        0.0979972947        0.0188262443
 F          2.9531662515        1.0044890757       -1.4459740324
 C          2.1281102636        0.9685671932        0.7832682955
 F          2.5490925953        0.5274229521        1.9996726837
 F          2.2885231883        2.3061789903        0.7996022393
 H         -1.9842371587        0.6290511084       -1.8649686019
 H         -0.3541061661        1.2952780260       -1.9732390057
 H         -1.7662124833        2.3575738980       -2.1227556666
 H         -3.3435797654        3.6716057867        3.2824262242
 H         -2.1304447137        3.2698502487        5.4050209580
 H         -0.0861998454        1.9027642349        5.4205085130
 H          0.7937683697        0.9335200400        3.3584962513
 H         -1.9609860345       -0.8478574883        1.8972717651
 H         -0.3265764336       -1.4999830053        2.0205536022
 H         -1.7290737035       -2.5812810669        2.1164134473
 H         -3.1724335241       -3.7175603778       -3.3921433497
 H         -1.9741624385       -3.1234363697       -5.4765206186
 H          0.0000401269       -1.6603339520       -5.3960709023
 H          0.8386658484       -0.7949522344       -3.2632845357
  45
  -91.0442177225000       4.312548322144182E-002 !
 C          0.1862763398        3.1529950396       -1.7424978826
 C         -0.5414999645        2.5258638582       -0.6089502139
 S         -2.1397252619        3.1097301541       -0.2480987214
 C         -2.3263302692        1.9590672782        1.0429621185
 C         -3.4246866516        1.8112659407        1.8755260607
 C         -3.3679682933        0.8543743939        2.8674476467
 C         -2.2215590011        0.0816830847        3.0444165519
 C         -1.1293525895        0.2325922611        2.2189175354
 C         -1.1807863061        1.1599549031        1.1786405611
 C         -0.1732211435        1.4907868594        0.2018667935
 C          1.0362240063        0.6888728401        0.0898228754
 C          1.0642769948       -0.6630562868        0.0330577896
 C         -0.1036601374       -1.5130975434       -0.1409082323
 C         -0.4517281517       -2.5942634017        0.6188634163
 C          0.2461050958       -3.2327537037        1.7639646985
 S         -2.0252497596       -3.2130871249        0.2074439755
 C         -2.2225513225       -2.0260957170       -1.0477558802
 C         -3.3078044184       -1.8890119066       -1.8990356621
 C         -3.2560842100       -0.9110444068       -2.8704392725
 C         -2.1226684007       -0.1130186710       -3.0129762484
 C         -1.0450638447       -0.2535513582       -2.1666795417
 C         -1.0975597299       -1.1926056048       -1.1373079487
 C          2.4867751614       -1.1650542084        0.0755055010
 F          2.7130508364       -2.2519156277       -0.6873252860
 F          2.8976999317       -1.5039613019        1.3312241058
 C          3.2958114843        0.0793616453       -0.3768988895
 F          4.5750916983        0.0811696766        0.0184566752
 F          3.2966175838        0.1518692776       -1.7298345791
 C          2.4381725322        1.2437062021        0.1851651524
 F          2.7828711576        1.4925997873        1.4774158890
 F          2.6612935939        2.4001486033       -0.4712809483
 H         -0.5214889905        3.5062917491       -2.4892135685
 H          0.8793591802        2.4561694182       -2.2076130600
 H          0.7629123076        4.0092922390       -1.3914460899
 H         -4.2937275252        2.4372808967        1.7479761320
 H         -4.2122028420        0.7155449763        3.5250827231
 H         -2.1888276644       -0.6390861231        3.8474968251
 H         -0.2303571750       -0.3405384417        2.3822695413
 H         -0.2247341636       -2.9328453892        2.7015540121
 H          1.2949912060       -2.9649737168        1.8055798296
 H          0.1644303699       -4.3158358379        1.6879181294
 H         -4.1622514529       -2.5400686914       -1.8017623995
 H         -4.0912160743       -0.7782243963       -3.5407699018
 H         -2.0863153418        0.6198644334       -3.8045378829
 H         -0.1543469353        0.3362358215       -2.3092767474
