  45
        -91.29408444
 C          0.2818761588        3.2333241628       -1.6818895381
 C         -0.4863463743        2.5831840655       -0.5884518068
 S         -2.0878175294        3.1736720903       -0.2551978548
 C         -2.3337637263        1.9669614295        0.9733316662
 C         -3.4673070065        1.7901168983        1.7509125902
 C         -3.4614946234        0.7834121620        2.6939950090
 C         -2.3297522860       -0.0082146401        2.8808103152
 C         -1.2021420059        0.1737716154        2.1112858182
 C         -1.2015958590        1.1500316562        1.1154506451
 C         -0.1567201368        1.5100399449        0.1892854084
 C          1.0469872720        0.6993421504        0.0754712865
 C          1.0711615480       -0.6512064656       -0.0297962255
 C         -0.0818075207       -1.5115113550       -0.2162380396
 C         -0.3321991669       -2.6610160560        0.4852083279
 C          0.5195624088       -3.3609068463        1.4809291736
 S         -1.9148157431       -3.2974435979        0.1684858034
 C         -2.2543933152       -2.0306572603       -0.9747204068
 C         -3.4154456055       -1.8692757121       -1.7139902468
 C         -3.4733646505       -0.8300625935       -2.6192420423
 C         -2.3718370841        0.0007480289       -2.8144859603
 C         -1.2193485858       -0.1626630108       -2.0781757937
 C         -1.1619043726       -1.1589314429       -1.1036955689
 C          2.4881732743       -1.1637203955        0.0563767462
 F          2.7416878938       -2.2249244854       -0.7368499526
 F          2.8374518588       -1.5524965448        1.3141453032
 C          3.3235365470        0.0879831603       -0.3191946507
 F          4.5824982652        0.0699326057        0.1378348846
 F          3.3910693766        0.2003208449       -1.6675330518
 C          2.4477468543        1.2405596678        0.2381230230
 F          2.7420357113        1.4497676247        1.5512989635
 F          2.7051620089        2.4141389178       -0.3735196259
 H         -0.4001987837        3.6329255876       -2.4293971362
 H          0.9652090548        2.5335751991       -2.1580093133
 H          0.8739730064        4.0601665624       -1.2885715061
 H         -4.3254232727        2.4299050798        1.6178190024
 H         -4.3350237698        0.6190627907        3.3058964172
 H         -2.3364701570       -0.7699667697        3.6455371507
 H         -0.3166364281       -0.4167173245        2.2850870965
 H          1.4125244127       -3.7644828292        1.0034836587
 H         -0.0314911474       -4.1834957993        1.9296087598
 H          0.8433645943       -2.6844646231        2.2709855871
 H         -4.2429032397       -2.5489811638       -1.5847639900
 H         -4.3689458543       -0.6763732113       -3.2012091090
 H         -2.4205589415        0.7782712704       -3.5616069938
 H         -0.3551975649        0.4524009731       -2.2674594562
  45
        -91.29407251
 C          0.2869978318        3.2484474247       -1.6657491799
 C         -0.4844809659        2.5838523494       -0.5834307406
 S         -2.0968004340        3.1530853123       -0.2658558822
 C         -2.3413172467        1.9400344659        0.9563296980
 C         -3.4824154412        1.7432828880        1.7180217618
 C         -3.4729448692        0.7358547838        2.6602516489
 C         -2.3298181054       -0.0347824386        2.8642925236
 C         -1.1953228306        0.1662887183        2.1098200192
 C         -1.1989327734        1.1400690163        1.1115583333
 C         -0.1496772026        1.5125812164        0.1950499438
 C          1.0551807270        0.7039111926        0.0804218357
 C          1.0752905185       -0.6468431036       -0.0238995642
 C         -0.0826005162       -1.5022464291       -0.2040729307
 C         -0.3422983591       -2.6425724963        0.5082401445
 C          0.5037901221       -3.3376758176        1.5121072689
 S         -1.9301974059       -3.2689214913        0.1965501727
 C         -2.2593544856       -2.0097993609       -0.9578080535
 C         -3.4190713964       -1.8437190289       -1.6982665707
 C         -3.4682695887       -0.8106217236       -2.6109606377
 C         -2.3601563524        0.0099406953       -2.8124542415
 C         -1.2087488513       -0.1582538133       -2.0755232740
 C         -1.1596649477       -1.1483919788       -1.0944545198
 C          2.4905942655       -1.1644337939        0.0533402907
 F          2.7347904841       -2.2266816228       -0.7411481496
 F          2.8465090680       -1.5546096260        1.3088583681
 C          3.3269813539        0.0846982114       -0.3290650339
 F          4.5893209364        0.0637682295        0.1184618984
 F          3.3847389243        0.1952092506       -1.6779846639
 C          2.4586783792        1.2410464688        0.2327764398
 F          2.7624901773        1.4510915350        1.5434754354
 F          2.7164042676        2.4124168943       -0.3825390065
 H          0.8894568293        4.0603458603       -1.2571544835
 H         -0.3930915150        3.6705284565       -2.4025488850
 H          0.9617002982        2.5516641163       -2.1585410875
 H         -4.3491818278        2.3686207040        1.5728722248
 H         -4.3526148744        0.5552152646        3.2585727752
 H         -2.3329940402       -0.7957027414        3.6298673215
 H         -0.3012174149       -0.4067445148        2.2974263025
 H          1.3944823102       -3.7516560904        1.0398320588
 H         -0.0530265305       -4.1515303283        1.9691803094
 H          0.8318501592       -2.6545201576        2.2947227297
 H         -4.2526609698       -2.5148684199       -1.5637575805
 H         -4.3629603434       -0.6532976498       -3.1933232605
 H         -2.4030356074        0.7833051118       -3.5642133997
 H         -0.3395599120        0.4486632115       -2.2687278633
  45
        -91.29407152
 C          0.2751656240        3.2395994894       -1.6725784556
 C         -0.4891918254        2.5913340348       -0.5753725794
 S         -2.0838172487        3.1922829234       -0.2285835734
 C         -2.3271839442        1.9871071676        1.0016397400
 C         -3.4541594515        1.8200255386        1.7911121806
 C         -3.4476099027        0.8128915910        2.7335618545
 C         -2.3216124971        0.0102538743        2.9073729841
 C         -1.2002813045        0.1828263374        2.1265509039
 C         -1.2005329755        1.1607783909        1.1324347994
 C         -0.1602830196        1.5152092842        0.1987224209
 C          1.0405665630        0.7014393896        0.0792986182
 C          1.0625744995       -0.6489134175       -0.0242927068
 C         -0.0895014299       -1.5103965029       -0.2123779357
 C         -0.3402149424       -2.6590706960        0.4897502265
 C          0.5031417876       -3.3478749120        1.5002142234
 S         -1.9117959380       -3.3112028736        0.1507245537
 C         -2.2442481747       -2.0529888856       -1.0035340642
 C         -3.3921541300       -1.9094691049       -1.7666947175
 C         -3.4456868173       -0.8736225332       -2.6760730995
 C         -2.3534932344       -0.0257880911       -2.8489071833
 C         -1.2135936889       -0.1720131442       -2.0896055878
 C         -1.1600637090       -1.1683854011       -1.1151592527
 C          2.4790463856       -1.1642773122        0.0542347495
 F          2.7254007456       -2.2255972559       -0.7405787280
 F          2.8345896254       -1.5545030442        1.3095763329
 C          3.3142434404        0.0860766313       -0.3262861435
 F          4.5761152079        0.0662240990        0.1226564017
 F          3.3735015096        0.1983197223       -1.6748845912
 C          2.4435931599        1.2398815957        0.2362165196
 F          2.7437645141        1.4470222073        1.5482352899
 F          2.7008574563        2.4135492021       -0.3754452310
 H         -0.4097895623        3.6381401640       -2.4181409704
 H          0.9565761956        2.5395913844       -2.1505531625
 H          0.8681126320        4.0675612027       -1.2825426068
 H         -4.3075275461        2.4679359790        1.6672398869
 H         -4.3160547804        0.6563678214        3.3547478695
 H         -2.3271150788       -0.7528293462        3.6707189090
 H         -0.3185080489       -0.4158687451        2.2905009497
 H         -0.0540647615       -4.1608280269        1.9586638292
 H          0.8277717910       -2.6608969759        2.2809682547
 H          1.3961121996       -3.7631365051        1.0327696417
 H         -4.2126219525       -2.6002460650       -1.6527729708
 H         -4.3309048363       -0.7349611986       -3.2774006332
 H         -2.3990030767        0.7511455030       -3.5968707005
 H         -0.3558318784        0.4570031756       -2.2611629812
  45
        -91.29344070
 C          0.4481187826        3.2623450965       -1.6366710492
 C         -0.3900549737        2.6183699019       -0.5913060029
 S         -1.9968663717        3.2362134125       -0.3501727501
 C         -2.3523817897        1.9998799856        0.8192942071
 C         -3.5508615657        1.8131058576        1.4891016385
 C         -3.6400115440        0.7706118345        2.3876667933
 C         -2.5373191027       -0.0427964441        2.6418454332
 C         -1.3437923017        0.1513909499        1.9821699193
 C         -1.2461585592        1.1607376418        1.0245766160
 C         -0.1320551650        1.5218014949        0.1835903162
 C          1.0608373381        0.6918313117        0.0993612189
 C          1.0928335837       -0.6570549617       -0.0456147774
 C         -0.0472181408       -1.5370031378       -0.2216566415
 C         -0.2302153551       -2.7218096856        0.4453307325
 C          0.6927041793       -3.4622980745        1.3439108275
 S         -1.8276013576       -3.3628194242        0.2305348697
 C         -2.2735292423       -2.0488221690       -0.8169958097
 C         -3.5017774202       -1.8598617960       -1.4297016235
 C         -3.6485527844       -0.7807082729       -2.2757591100
 C         -2.5671696413        0.0541704949       -2.5493588873
 C         -1.3465575198       -0.1397302278       -1.9408941168
 C         -1.1985741490       -1.1668985122       -1.0086062330
 C          2.5178606569       -1.1570698340        0.0104634672
 F          2.7712064198       -2.1842916681       -0.8271619345
 F          2.8952874059       -1.5869701600        1.2460343715
 C          3.3365359814        0.1154642214       -0.3260502274
 F          4.6071752260        0.0846965072        0.0963054193
 F          3.3684602492        0.2996211376       -1.6682175212
 C          2.4606990157        1.2223042311        0.3118372872
 F          2.7406296423        1.3160976853        1.6429489135
 F          2.7304975676        2.4429510780       -0.1885791155
 H          1.1215520322        2.5450768702       -2.1015401427
 H          1.0548538079        4.0576210818       -1.2031405523
 H         -0.1872312323        3.7034116252       -2.4018737100
 H         -4.3862316653        2.4698809647        1.3039111584
 H         -4.5672993529        0.5933721183        2.9103245059
 H         -2.6206942738       -0.8349815609        3.3702397604
 H         -0.4848755538       -0.4603936665        2.2080532729
 H          1.0161126304       -2.8414421048        2.1790094006
 H          1.5824955441       -3.7828008197        0.8027269558
 H          0.1954091739       -4.3446141057        1.7392494696
 H         -4.3130918411       -2.5466768418       -1.2467510486
 H         -4.5997708125       -0.5989655774       -2.7515489825
 H         -2.6878112627        0.8627289767       -3.2540834626
 H         -0.5029562270        0.4800682887       -2.1954129949
  45
        -91.29247481
 C          0.1798291727        3.1854892724       -1.6830612079
 C         -0.5455895122        2.5361676964       -0.5605500019
 S         -2.1440729230        3.1110321384       -0.1866256633
 C         -2.3274307190        1.9360183197        1.0827864131
 C         -3.4244581465        1.7711210084        1.9138907363
 C         -3.3651513194        0.7957969085        2.8875397684
 C         -2.2175054314        0.0214195163        3.0483896616
 C         -1.1266223319        0.1892829892        2.2244157731
 C         -1.1806724183        1.1360009207        1.2018568131
 C         -0.1748690543        1.4864922111        0.2301368012
 C          1.0354558413        0.6884223120        0.1013905872
 C          1.0651758497       -0.6621601638        0.0191391031
 C         -0.1018997513       -1.5103110997       -0.1692381534
 C         -0.4475350589       -2.6060486879        0.5705045626
 C          0.2526837198       -3.2650689792        1.7024427107
 S         -2.0208168649       -3.2190857891        0.1496139847
 C         -2.2213628972       -2.0089303411       -1.0827448378
 C         -3.3079528098       -1.8572696039       -1.9298368652
 C         -3.2588204549       -0.8611169627       -2.8827200228
 C         -2.1266309616       -0.0590580232       -3.0117226193
 C         -1.0476919259       -0.2140832571       -2.1696674756
 C         -1.0975710548       -1.1724221232       -1.1580928305
 C          2.4883772235       -1.1629960904        0.0502193194
 F          2.7150138759       -2.2350021811       -0.7332460625
 F          2.9014524177       -1.5249469855        1.2987812253
 C          3.2951888656        0.0907813288       -0.3797544921
 F          4.5750040758        0.0868279594        0.0138500758
 F          3.2940548964        0.1887525909       -1.7310847007
 C          2.4368160559        1.2432063476        0.2052852518
 F          2.7829565775        1.4681763695        1.5015307355
 F          2.6575485136        2.4120970540       -0.4295652952
 H         -0.5294099332        3.5518521976       -2.4220420879
 H          0.8731751867        2.4984578323       -2.1621447118
 H          0.7558382684        4.0357824673       -1.3167194296
 H         -4.2944793849        2.3982826150        1.7993171204
 H         -4.2083076839        0.6434981857        3.5435747660
 H         -2.1827480111       -0.7143000355        3.8377097357
 H         -0.2266659848       -0.3856385149        2.3757408303
 H         -0.2172620809       -2.9834882702        2.6461437095
 H          1.3012792306       -2.9967400944        1.7476873451
 H          0.1723029689       -4.3466336831        1.6061230494
 H         -4.1614254471       -2.5111663809       -1.8436961556
 H         -4.0950371136       -0.7167973693       -3.5493106718
 H         -2.0923040193        0.6886472804       -3.7893905760
 H         -0.1579322733        0.3794559976       -2.3023264632
  45
        -91.29192967
 C         -1.3647598939        1.5152060041       -1.5810838511
 C         -1.3612323119        1.7164266536       -0.1104115546
 S         -2.6249703328        2.6729463292        0.5961433803
 C         -1.9289374814        2.5026433880        2.1829052601
 C         -2.4372887411        3.0226887046        3.3624220982
 C         -1.7557218777        2.7701544411        4.5349354003
 C         -0.5957566682        1.9989651064        4.5259930510
 C         -0.0935591062        1.4779495089        3.3531326098
 C         -0.7492876390        1.7383148125        2.1489022393
 C         -0.4435116786        1.2933168403        0.8126337605
 C          0.7257015770        0.5146820497        0.4425485938
 C          0.7575316861       -0.5868278436       -0.3382077160
 C         -0.3797154684       -1.3877095566       -0.7630740247
 C         -1.2899359042       -1.8843257650        0.1277114868
 C         -1.3208824940       -1.7256829319        1.6037107329
 S         -2.5086500990       -2.8543219431       -0.6403760246
 C         -1.8094963139       -2.5703630456       -2.2100982259
 C         -2.2919122127       -3.0349459916       -3.4235317683
 C         -1.6223761707       -2.6731948406       -4.5741527961
 C         -0.5020980549       -1.8467679050       -4.5125004398
 C         -0.0233609337       -1.3838202726       -3.3065818478
 C         -0.6625323021       -1.7616358486       -2.1243607233
 C          2.1875916514       -1.0293169338       -0.5628168200
 F          2.4662174586       -1.5729612371       -1.7617623196
 F          2.5474786130       -1.9724525368        0.3525017250
 C          2.9809448534        0.2778101172       -0.3065579510
 F          4.2685171313        0.1027748963        0.0160933319
 F          2.9504029247        1.0345687762       -1.4303216923
 C          2.1278101556        0.9565049312        0.7987535181
 F          2.5506348624        0.4934871416        2.0063576729
 F          2.2866558640        2.2937794901        0.8396095941
 H         -1.9870040833        0.6609826258       -1.8509259916
 H         -0.3577820240        1.3310579479       -1.9486111151
 H         -1.7713073591        2.3942312471       -2.0769881598
 H         -3.3443626813        3.6063525816        3.3532068131
 H         -2.1284493739        3.1669417041        5.4667312344
 H         -0.0825706768        1.8022662176        5.4548027692
 H          0.7963066306        0.8723149119        3.3743128788
 H         -1.9579197244       -0.8851002783        1.8833790242
 H         -0.3226058177       -1.5374213141        1.9928620704
 H         -1.7237161621       -2.6219934250        2.0702335062
 H         -3.1717068380       -3.6581229210       -3.4568249248
 H         -1.9764035490       -3.0241772819       -5.5311509611
 H         -0.0038496259       -1.5604323578       -5.4258018812
 H          0.8360646535       -0.7335621235       -3.2782949726
