  84
       -130.68995344
 C          8.4540828665       -0.3025453784       -1.1793312050
 C          7.5792312830        0.2307268001       -0.0292638677
 C          8.4667444051        0.7763763342        1.1057320305
 C          6.7201442631        1.3602694414       -0.5582846480
 C          7.3235475130        2.4822366896       -1.1096059903
 C          6.5853949436        3.5342354837       -1.6196982536
 C          5.2012298104        3.4717715043       -1.5941640222
 C          4.5742123293        2.3725565255       -1.0516850875
 C          5.3193225970        1.3129350517       -0.5167550739
 N          4.6648729941        0.2269989723        0.0314228329
 C          3.2421369654        0.2351738797        0.0779014257
 C          2.5865113318        0.9959305868        1.0374130748
 C          1.2067905778        1.0090607556        1.0780912857
 C          0.4702537931        0.2540650738        0.1708153184
 C         -1.0017042808        0.2532120820        0.2249528881
 C         -1.6774775900       -0.9710994851        0.3164866432
 C         -0.9798653887       -2.1463597401        0.5943872257
 N         -0.3773814895       -3.0992004152        0.8374653202
 C         -3.1197226401       -0.9355538537        0.2668412844
 C         -3.9210659362       -2.1513655772        0.3154033891
 C         -5.0084510644       -2.1829447057        1.1700060355
 C         -5.7609222656       -3.3449699301        1.3350036095
 C         -5.4261117010       -4.4857031267        0.6531705183
 C         -4.3640626872       -4.4831359958       -0.2741452335
 C         -4.0500110106       -5.6317390519       -1.0299575710
 C         -3.0653365917       -5.6022739904       -1.9779368954
 C         -2.3736326372       -4.4111035361       -2.2298497717
 C         -2.6447194894       -3.2841742090       -1.5014847763
 C         -3.6120177133       -3.2947252835       -0.4773657452
 N         -3.7374046688        0.2112789189        0.2998453365
 C         -3.1587300310        1.4106986361        0.2828888412
 C         -3.9745910310        2.5794630677        0.3538270971
 C         -3.4342110620        3.7809758571        0.8516283210
 C         -4.2152479835        4.8993258288        1.0593777683
 C         -5.5664763730        4.8784635268        0.7701183067
 C         -6.1631212309        3.7134830393        0.2505475024
 C         -7.5397580438        3.6814155761       -0.0454989430
 C         -8.1279456426        2.5644450671       -0.5911541415
 C         -7.3509478320        1.4439385020       -0.8653788191
 C         -5.9969262497        1.4521608812       -0.5910948973
 C         -5.3725435297        2.5536045149        0.0066245082
 C         -1.7075344622        1.4524929792        0.1706564292
 C         -0.9907226828        2.6033877978       -0.1740938617
 N         -0.3322089513        3.4954888118       -0.4911742287
 C          1.1345916244       -0.5128252217       -0.7812824238
 C          2.5138648887       -0.5172021549       -0.8347060405
 C          5.3438214804       -0.8628895923        0.5407230561
 C          4.6247814235       -1.9279971625        1.0999278566
 C          5.2767510517       -3.0300064504        1.6060901219
 C          6.6607956364       -3.0894591875        1.5712757640
 C          7.3741154534       -2.0321251576        1.0374321307
 C          6.7452574093       -0.9082517073        0.5195042511
 H          9.0807351044        0.4853737426       -1.5868682640
 H          9.0993537067       -1.1054456905       -0.8349760690
 H          7.8226937649       -0.6871779854       -1.9778544038
 H          7.8439099427        1.1508819070        1.9155975139
 H          9.0928415489        1.5895192808        0.7502582060
 H          9.1113231810       -0.0029634202        1.5015992326
 H          8.4004272424        2.5419234921       -1.1467149874
 H          7.0868541215        4.3920902108       -2.0403796881
 H          4.6083411214        4.2776752308       -1.9980229097
 H          3.4967370024        2.3284749094       -1.0408261783
 H          3.1619471438        1.5755394003        1.7435666093
 H          0.6970063393        1.5966052786        1.8267210929
 H         -5.2511085054       -1.2957813481        1.7362384646
 H         -6.5940146668       -3.3430147097        2.0224391967
 H         -5.9823771113       -5.3999378366        0.8024665265
 H         -4.6152319734       -6.5356035304       -0.8518020076
 H         -2.8300375506       -6.4868728070       -2.5510829410
 H         -1.6275514313       -4.3836585584       -3.0099853237
 H         -2.1269328278       -2.3656136992       -1.7348823741
 H         -2.3924067848        3.8190271282        1.1261082320
 H         -3.7626897121        5.7936214604        1.4617680893
 H         -6.1758844496        5.7564055305        0.9240098426
 H         -8.1325810671        4.5579479392        0.1745388767
 H         -9.1849963161        2.5580856477       -0.8135779916
 H         -7.8014765368        0.5689927774       -1.3100576591
 H         -5.4051365296        0.5882278453       -0.8510088738
 H          0.5697512925       -1.0974402183       -1.4917630475
 H          3.0328477489       -1.1049839346       -1.5769125392
 H          3.5477844898       -1.8863101148        1.1371591281
 H          4.7033597277       -3.8406298363        2.0283198368
 H          7.1817944972       -3.9490296153        1.9636002499
 H          8.4518535129       -2.0884349820        1.0301741384
