84
 energy: -130.761248653100 gnorm: 0.000086881849 xtb: 6.7.1 (edcfbbe)
C            8.18525513729780       -0.39994903830759       -1.33752197505213
C            7.38219096319810       -0.11211875467581       -0.05575193406028
C            8.33580323705931        0.16041875782600        1.12194941707276
C            6.52868596202256        1.11921905511031       -0.28962299668896
C            7.14469359233617        2.32154140057148       -0.61097195425681
C            6.42254993897476        3.47036648886073       -0.87277047338306
C            5.04096093207086        3.42096057540227       -0.83646941500367
C            4.40368902471948        2.24027794813744       -0.51872051480221
C            5.13252459658281        1.08550220191088       -0.21810356633912
N            4.46453606531703       -0.08790656688012        0.11206567543354
C            3.05289327306260       -0.07536065345722        0.19279938635096
C            2.41661481804049        0.62195428523243        1.21561281095810
C            1.03946482291252        0.64596578817077        1.28659015546444
C            0.27403460367051       -0.04269351052169        0.34781385396836
C           -1.19027474668333       -0.02125428706687        0.43011752399244
C           -1.93777895085301       -1.20546192073795        0.38505854121960
C           -1.30908408179688       -2.46642129139005        0.31127038424474
N           -0.81429076884098       -3.50027612990728        0.26511030764610
C           -3.34291076615022       -1.12237658728309        0.41008339950315
C           -4.16495987237205       -2.34385329368888        0.33265318913350
C           -4.07277520812730       -3.27646963805886        1.33713687198029
C           -4.88663176980392       -4.41619129357122        1.33164678202408
C           -5.78857542224360       -4.61393262571641        0.32457257309116
C           -5.89579574345882       -3.69245098084740       -0.73761364825568
C           -6.80260180746991       -3.88821908816304       -1.80045664506884
C           -6.87025807061668       -3.00090975076841       -2.83722106157821
C           -6.01708029839243       -1.88781052903815       -2.86818138571109
C           -5.12944023027820       -1.66872704813691       -1.85225233668224
C           -5.06223259245860       -2.54342375226500       -0.74835593630173
N           -3.97515565865993        0.02942416308262        0.54616941822141
C           -3.29972994695423        1.16421124450661        0.65686860775381
C           -4.03992427482726        2.40244712795686        0.92553827143893
C           -3.52911527886227        3.26863883026542        1.86960358537552
C           -4.17154592984435        4.47104251719015        2.17849984009739
C           -5.32728919659195        4.81466964995553        1.53563304977006
C           -5.89667093265009        3.95548103256111        0.57387435891714
C           -7.09459650937704        4.29863959489771       -0.08807523337465
C           -7.65002387100958        3.46242466021873       -1.01437206409668
C           -7.02649156356428        2.24381763199480       -1.31718084036068
C           -5.86110595984228        1.88568544994090       -0.69796439687856
C           -5.26168424633506        2.72144546501950        0.26536714745576
C           -1.89035549808430        1.18643376362741        0.55539551013258
C           -1.18676001069163        2.40783518477891        0.46456816744530
N           -0.60695512687708        3.38872294321742        0.32981353746574
C            0.91338093898532       -0.75073415792840       -0.66745693570623
C            2.29038071013605       -0.75861257319057       -0.74994553644975
C            5.14643562073850       -1.27199626556921        0.36549018783428
C            4.43775283797301       -2.41467227247619        0.74904164731647
C            5.08750656430754       -3.60568759475566        0.99473536695934
C            6.46327326582413       -3.67783106073293        0.87399031930891
C            7.16964598628126       -2.54117299064372        0.52913110009139
C            6.54096229818227       -1.32883734793620        0.27775014997681
H            8.81846885489797       -1.27371362659638       -1.21110553014460
H            7.50435888104738       -0.58620671021170       -2.16606376859022
H            8.81811755949750        0.44398175753031       -1.59756278700273
H            7.76086562061055        0.35839983927149        2.02474535042340
H            8.96533536111827        1.02265459372375        0.92045143806496
H            8.97983316514730       -0.69477671036035        1.30683879179637
H            8.22201163109261        2.36752268689508       -0.66267254252149
H            6.93396670546340        4.38952130779527       -1.11462206212069
H            4.45334707914173        4.29892297538967       -1.05852734528933
H            3.32514801923424        2.21359278345286       -0.51058484135542
H            3.00994071526300        1.14663853700273        1.94910979678535
H            0.55428129002687        1.17893961369081        2.09110168798006
H           -3.38404106676730       -3.12183826036891        2.15542240484889
H           -4.79729847160824       -5.12900732343153        2.13738263467881
H           -6.42896214656748       -5.48410267629772        0.32243555308704
H           -7.43925948290969       -4.76116517254287       -1.78099032372704
H           -7.56857972615474       -3.15720870329406       -3.64617218140664
H           -6.06040432954484       -1.20813266018698       -3.70668859509139
H           -4.45545510796370       -0.82576405435002       -1.89747013969428
H           -2.62919643561901        3.01055740138781        2.40919073204841
H           -3.74181041386381        5.12048816974673        2.92593030671630
H           -5.82669634263558        5.74610790356817        1.76007392610113
H           -7.56399933308813        5.24125851920064        0.15486433280973
H           -8.56779820501362        3.73230130835659       -1.51574209330687
H           -7.47371025664160        1.58334950791475       -2.04555375799655
H           -5.40341317771135        0.93857312583829       -0.92622234049231
H            0.32911860291650       -1.27214704871164       -1.41128249648745
H            2.78556167120405       -1.29618588523807       -1.54437230365017
H            3.36571416416047       -2.36978570357862        0.86235461516634
H            4.51482086751101       -4.47409032079479        1.28353673625414
H            6.98370538898473       -4.60529394605479        1.05790139791348
H            8.24488806252560       -2.60516398534412        0.45734711673660
