84
 energy: -130.692709964498 gnorm: 0.000116599883 xtb: 6.7.1 (edcfbbe)
C            8.42981000701025       -0.31183023109590       -1.19877151635813
C            7.58119028320149        0.23543593651475       -0.03545662548166
C            8.49411723394288        0.78478012741402        1.07706648086971
C            6.71767581346151        1.36456788623743       -0.55864016854910
C            7.31709285898558        2.48355754539285       -1.12038221449730
C            6.57547418426107        3.53337434808941       -1.62978619837877
C            5.19174532299708        3.47080922323261       -1.59410827515516
C            4.56873046798201        2.37373298659664       -1.04249745704796
C            5.31745770620262        1.31701473910987       -0.50730243580934
N            4.66717504130533        0.23247838715151        0.04992043217789
C            3.24461431318676        0.23348397079038        0.09477470801249
C            2.58258655095173        1.00448560520505        1.04173941580049
C            1.20283607178538        1.01212713962750        1.07795198603430
C            0.47171530590551        0.24213277080195        0.17837746965186
C           -0.99984499383423        0.24285728740829        0.22590203908806
C           -1.68151594156265       -0.98172372986262        0.31276105519930
C           -0.99324200574648       -2.16246092009520        0.58885386557971
N           -0.39762810562307       -3.11993755835670        0.83084995671379
C           -3.12106529617797       -0.93896639403589        0.25401107800903
C           -3.92603837706909       -2.15627600192984        0.30268540462282
C           -4.99984416961508       -2.19233473643031        1.17049605121273
C           -5.75238330461678       -3.35600479232124        1.33663765976922
C           -5.42813210927909       -4.49019863244170        0.64152799953671
C           -4.37670527308223       -4.48214147105560       -0.29805126594275
C           -4.07077892035296       -5.62615215751114       -1.06422208396043
C           -3.09425104323928       -5.59149288114584       -2.01957564552898
C           -2.40176141450702       -4.39944306862664       -2.26869760874873
C           -2.66487008181178       -3.27731474904014       -1.53157436520307
C           -3.62579376974131       -3.29313619072023       -0.50075316571851
N           -3.73649784356819        0.20602740188342        0.28228063437955
C           -3.15473737683235        1.40916612609828        0.27160185580358
C           -3.96588529667180        2.57675674642641        0.34420065016961
C           -3.42088539583312        3.78233592741763        0.83540295734110
C           -4.20027966436394        4.89858636576678        1.05051888074977
C           -5.55594786998256        4.87651163771182        0.77681891686407
C           -6.15713857465006        3.71005186677041        0.26320811678327
C           -7.53605665757787        3.67648109756448       -0.01728977984667
C           -8.12940860458266        2.55884585795481       -0.55839341640449
C           -7.35437421283876        1.44093211740492       -0.84361033399476
C           -5.99635555414538        1.45170140676719       -0.58520917869638
C           -5.36776158464623        2.55181772835601        0.00893889991419
C           -1.70285812538963        1.44182993294946        0.16841048851391
C           -0.98174838566379        2.59048716964955       -0.18037123385305
N           -0.32231000930694        3.47894811491492       -0.50395080554331
C            1.14255416569303       -0.53707509183491       -0.75918353849210
C            2.52202291874021       -0.53638501474307       -0.80781982927494
C            5.35106972834731       -0.85105479943838        0.56721334619092
C            4.63712599276102       -1.90978772639599        1.14422104979665
C            5.29348784641136       -3.00593018613020        1.65771662624963
C            6.67706489371098       -3.06539195388072        1.61284352672420
C            7.38549491033573       -2.01369795506318        1.06176496738597
C            6.75200628967067       -0.89576707061500        0.53651518101764
H            9.05330209756610        0.46923814581923       -1.62416561499543
H            9.07591667914206       -1.11706850471299       -0.86126970770374
H            7.78002840728713       -0.69757812412735       -1.98197235066332
H            7.88967322350933        1.16827998604461        1.89682588952629
H            9.11721948767391        1.59207044170846        0.70314604028050
H            9.14346360985106        0.00536954718066        1.46520561242940
H            8.39375078386228        2.54283841798105       -1.16561919304949
H            7.07389327891778        4.38974826467344       -2.05697438185041
H            4.59586328953944        4.27503286317231       -1.99683914792662
H            3.49137120690741        2.32936100913217       -1.02534604057446
H            3.15323385327108        1.59662374576026        1.74132414665808
H            0.68858172277415        1.60746031841459        1.81734454675713
H           -5.23493538498046       -1.30944686742600        1.74652420934577
H           -6.57655116915758       -3.35775257592510        2.03470015720141
H           -5.98348999202311       -5.40511866817484        0.79007407854106
H           -4.63563160187752       -6.53047486734279       -0.88720107588349
H           -2.86427541828780       -6.47267734931136       -2.60027295533855
H           -1.65970494626042       -4.36957417105234       -3.05297438235363
H           -2.14497012046127       -2.35861065553975       -1.76010308067431
H           -2.37642884071815        3.82120780270615        1.09895625055347
H           -3.74484827559429        5.79396699251978        1.44730519996737
H           -6.16410706731641        5.75413406741599        0.93661313226946
H           -8.12792229054246        4.55159588035009        0.21082280619198
H           -9.18896198241763        2.55191145653440       -0.76852518110313
H           -7.80779199137226        0.56584586901297       -1.28497209741142
H           -5.40591886444216        0.59047227066834       -0.85725676053267
H            0.58280935184176       -1.13407822313387       -1.46335157476607
H            3.04562730160083       -1.13277227326233       -1.53981383848777
H            3.56047835347343       -1.86777037307128        1.18980582672143
H            4.72369072068781       -3.81175813037246        2.09365127858703
H            7.20132663448901       -3.92085899138656        2.00983209040758
H            8.46307918333496       -2.07058934956997        1.04435150602828
