  80
       -119.33885999
 C         -5.7951935279       -3.4675010614       -0.1995069708
 C         -6.0400950287       -1.9503095988       -0.3056455426
 C         -7.5357760016       -1.6681788587       -0.5428780887
 C         -5.2546979106       -1.4106592871       -1.4829373573
 C         -5.5059439544       -1.8981706633       -2.7578308960
 C         -4.8302255099       -1.4269338416       -3.8683752169
 C         -3.8785294123       -0.4311729786       -3.7153601856
 C         -3.6075779347        0.0716660696       -2.4630484757
 C         -4.2793582967       -0.4135788270       -1.3323721396
 N         -3.9798008444        0.1044057558       -0.0906130388
 C         -2.9958297396        1.1333979952        0.0130194624
 C         -3.4231266756        2.4680681437        0.1058876907
 C         -2.5042980969        3.4904013745        0.2003276433
 C         -1.1495574065        3.1774955628        0.2054153355
 C         -0.7148528012        1.8186319302        0.1101874160
 C         -1.6501626857        0.8014955555        0.0135380657
 C          0.7157629367        1.8143543015        0.1478716583
 C          1.6488725649        0.7923096384        0.0914796480
 C          2.9952345979        1.1166650245        0.1498321506
 N          3.9773776139        0.0823691066        0.1023356055
 C          4.2441251250       -0.6428739668        1.2441024768
 C          3.5393158068       -0.3605052643        2.4225641086
 C          3.7757784353       -1.0742252855        3.5755257896
 C          4.7263995604       -2.0826497041        3.5805275402
 C          5.4367136287       -2.3528476845        2.4253814508
 C          5.2199781759       -1.6508589258        1.2478996960
 C          6.0457477970       -1.9742845702        0.0201085347
 C          7.5295006849       -1.7222913424        0.3492485516
 C          5.8269506049       -3.4530035547       -0.3521399164
 C          5.6576379192       -1.1148658907       -1.1649423794
 C          6.3056181830       -1.2861005448       -2.3801778538
 C          5.9780771228       -0.5382423641       -3.4962835041
 C          4.9664874151        0.4052962257       -3.4118263255
 C          4.3074910981        0.5989307378       -2.2189917635
 C          4.6490833586       -0.1436403183       -1.0799628421
 C          3.4249343871        2.4491699300        0.2640356182
 C          2.5083977797        3.4761471881        0.3213771404
 C          1.1530538599        3.1710820667        0.2617674317
 C          0.0027272062        4.0575965578        0.3002679807
 O          0.0035908179        5.2975523525        0.3945748854
 C         -4.6204432702       -0.3218558817        1.0527453973
 C         -4.2533359232        0.2225541099        2.2913868208
 C         -4.8799181780       -0.1750720662        3.4506666640
 C         -5.8836571247       -1.1293546053        3.4003631750
 C         -6.2375158122       -1.6810825422        2.1827273480
 C         -5.6233560230       -1.3011119718        0.9976777871
 H         -4.7373266427       -3.6611156805       -0.0324044917
 H         -6.0968275347       -3.9732382170       -1.1122785026
 H         -6.3566797594       -3.8935720443        0.6269807416
 H         -7.8763802885       -2.1339964295       -1.4631432887
 H         -8.1367734989       -2.0522373713        0.2764106156
 H         -7.7027456035       -0.5954606793       -0.6184853823
 H         -6.2511419217       -2.6667694179       -2.8956230729
 H         -5.0497704153       -1.8289353073       -4.8455111633
 H         -3.3494661982       -0.0444493958       -4.5729789253
 H         -2.8729523541        0.8523918545       -2.3456536682
 H         -4.4831524494        2.6755918805        0.0973282910
 H         -2.8228676744        4.5191623422        0.2694993104
 H         -1.3491985911       -0.2339854669       -0.0598844970
 H          1.3455810391       -0.2414779826        0.0047874089
 H          2.8067361819        0.4307379604        2.4227312858
 H          3.2207950384       -0.8418206554        4.4716313802
 H          4.9184679087       -2.6497677824        4.4783140588
 H          6.1817395555       -3.1334586999        2.4492749913
 H          7.8506491119       -2.3375571377        1.1850230397
 H          7.6777733376       -0.6772183609        0.6146603851
 H          8.1592620453       -1.9519216582       -0.5055663785
 H          4.7782492575       -3.6244283968       -0.5874418778
 H          6.1052364729       -4.1049579107        0.4707968507
 H          6.4222035096       -3.7269281715       -1.2184048751
 H          7.0894163354       -2.0233186240       -2.4654337800
 H          6.5040265669       -0.6953362026       -4.4254150085
 H          4.6906938212        0.9895685056       -4.2764022676
 H          3.5159602978        1.3284562183       -2.1552644269
 H          4.4851761919        2.6503492697        0.3112658015
 H          2.8290133029        4.5026193439        0.4120189494
 H         -3.4684097571        0.9609909991        2.3310463619
 H         -4.5851526615        0.2586038940        4.3940488676
 H         -6.3838433076       -1.4458407670        4.3027159099
 H         -7.0153254611       -2.4292000602        2.1623362921
