  52
  -89.6095489121000       0.378943890136842      !
 N          5.9460611469        1.8401309717        0.8849477975
 C          4.9712567585        1.2974340926        0.6253888380
 C          3.7559603136        0.6477416394        0.3072607046
 C          2.5436786236        1.2548376429        0.6149009492
 C          1.3381294280        0.6315379774        0.3175384512
 N          0.1364380002        1.2422118150        0.6738455281
 C         -0.2955143370        2.4938740183        0.2470412043
 C          0.3979214322        3.4757987803       -0.4422413420
 C         -0.2872036674        4.6279745992       -0.7825942979
 C         -1.6300588538        4.8006335151       -0.4567154321
 C         -2.3303559167        3.8179363630        0.2141454562
 C         -1.6602289706        2.6553484630        0.5685295552
 C         -2.0718160118        1.4468419932        1.2278388427
 N         -3.2516949683        1.1055512450        1.7190471500
 C         -3.3285496200       -0.0778431002        2.2976215113
 C         -2.2465145456       -0.9399993946        2.4681148595
 C         -1.0026178810       -0.5929267637        1.9678709024
 C         -0.9305599583        0.6084403547        1.2828518588
 C          1.3467378673       -0.6223252670       -0.3385960942
 N          0.1551284410       -1.2540779301       -0.6927371079
 C         -0.9374854872       -0.6415054324       -1.2952841963
 C         -0.9965764492        0.5672174217       -1.9699920225
 C         -2.2218275987        0.9590616878       -2.4758869264
 C         -3.3528322228        0.1576869377       -2.3438852975
 C         -3.2824695048       -1.0790950431       -1.7340441820
 C         -2.0625575358       -1.4879159372       -1.2137535848
 C         -1.6229073382       -2.6826020410       -0.5470181754
 N         -2.3032806491       -3.7685900728       -0.2198981909
 C         -1.6370219095       -4.7149293196        0.4141647364
 C         -0.2906159941       -4.6265079913        0.7630672084
 C          0.4363780247       -3.4933094360        0.4339321996
 C         -0.2463865267       -2.5028446936       -0.2513682971
 C          2.5603567610       -1.2354695208       -0.6246813734
 C          3.7643646414       -0.6178412236       -0.3063259580
 C          4.9873182421       -1.2595958956       -0.6108569070
 N          5.9672236334       -1.7985452844       -0.8586497078
 H          2.5376153984        2.2069439550        1.1244207049
 H          1.4345928752        3.3513280577       -0.7186366549
 H          0.2332734086        5.4088561697       -1.3165721793
 H         -2.1266339934        5.7157507093       -0.7412045131
 H         -3.3735697847        3.9303475972        0.4612736118
 H         -4.3061835833       -0.3474674057        2.6719498540
 H         -2.3777800992       -1.8717801649        2.9949673356
 H         -0.1395828645       -1.2264886278        2.1173694925
 H         -0.1203439898        1.1836479673       -2.1045114728
 H         -2.2981079090        1.9075220244       -2.9857339838
 H         -4.2927523940        0.5055690023       -2.7435896830
 H         -4.1421594967       -1.7247207145       -1.6563814045
 H         -2.2115626319       -5.5952771878        0.6676380686
 H          0.1823633427       -5.4381067642        1.2932512041
 H          1.4768016080       -3.3957650939        0.7114077571
 H          2.5677998682       -2.1881126806       -1.1333815005
  52
  -89.6091158543000       0.239637800056196      !
 N          5.9137974056        1.8543351991        0.8001310472
 C          4.9447046637        1.2956942840        0.5527818078
 C          3.7251427573        0.6357183362        0.2758516923
 C          2.5178565325        1.2673960875        0.5500342845
 C          1.3054514870        0.6393159875        0.2894066701
 N          0.1166253007        1.2895641393        0.6141292408
 C         -0.9590614027        0.7393125766        1.2983145882
 C         -1.0344621991       -0.4549555795        1.9971102538
 C         -2.2323833688       -0.7635988839        2.6139595331
 C         -3.3208670099        0.1035187612        2.5645905691
 C         -3.2328801497        1.3195527304        1.9168529247
 C         -2.0415111562        1.6438172883        1.2831160281
 C         -1.5924330948        2.8035942897        0.5636770317
 N         -2.2385531168        3.9189486180        0.2659486884
 C         -1.5720203245        4.8196284013       -0.4309165977
 C         -0.2607390621        4.6551537994       -0.8741525090
 C          0.4300893066        3.4919171372       -0.5740793781
 C         -0.2506459323        2.5498031620        0.1788200989
 C          1.3017060136       -0.6457725936       -0.3014839934
 N          0.1097465713       -1.2881941135       -0.6274901300
 C         -0.9741031701       -0.7232672272       -1.2876168695
 C         -1.0524649149        0.4762970383       -1.9769357578
 C         -2.2619725836        0.8046829715       -2.5602327841
 C         -3.3586848776       -0.0505165191       -2.4919139098
 C         -3.2657437129       -1.2768057142       -1.8643722400
 C         -2.0627221920       -1.6198120771       -1.2634344570
 C         -1.6062320125       -2.7951260463       -0.5744817850
 N         -2.2504144750       -3.9163787954       -0.2961167052
 C         -1.5742921775       -4.8380788902        0.3630959113
 C         -0.2567135956       -4.6866629714        0.7914640347
 C          0.4313177947       -3.5162191575        0.5132891552
 C         -0.2571312000       -2.5543850801       -0.2068960341
 C          2.5117454215       -1.2819431348       -0.5553291161
 C          3.7215594803       -0.6614393845       -0.2676580529
 C          4.9378699066       -1.3331671037       -0.5305928850
 N          5.9095779226       -1.8998488443       -0.7467811731
 H          2.5207922747        2.2457292584        1.0075470469
 H         -0.1874043151       -1.1197132176        2.0771505011
 H         -2.3201794141       -1.6955199368        3.1518270010
 H         -4.2386524706       -0.1766428250        3.0583585571
 H         -4.0561334425        2.0153031677        1.8989254661
 H         -2.1165121807        5.7259283125       -0.6577054528
 H          0.2129937617        5.4320876077       -1.4533132964
 H          1.4421147792        3.3367304383       -0.9218583647
 H         -0.1995947952        1.1307850832       -2.0753009216
 H         -2.3521539742        1.7430383571       -3.0864320978
 H         -4.2861248237        0.2458556890       -2.9573213462
 H         -4.0940594484       -1.9661618558       -1.8368821369
 H         -2.1166494400       -5.7498703964        0.5724338655
 H          0.2244554524       -5.4791122487        1.3427187398
 H          1.4477938177       -3.3726518133        0.8524819060
 H          2.5117819273       -2.2582293321       -1.0169722964
  52
  -89.6090031506000       0.212696473635746      !
 N          5.7815280424        2.4207208194       -0.3740404675
 C          4.8315572137        1.7826403611       -0.4242705148
 C          3.6484192571        1.0089069918       -0.4699629432
 C          2.4640976880        1.5228928543        0.0450083282
 C          1.2886266339        0.7828783568        0.0048156318
 N          0.1066554604        1.3346499458        0.4969539902
 C         -0.0931295987        1.8017820922        1.7920286292
 C          0.8242490448        1.9781663116        2.8159002770
 C          0.3490766147        2.4262135231        4.0350909693
 C         -1.0040561712        2.6840488320        4.2401768913
 C         -1.9249832325        2.4907212544        3.2298860857
 C         -1.4681830402        2.0451960966        1.9972213447
 C         -2.1304804488        1.7180162226        0.7646859861
 N         -3.4138410710        1.7762337017        0.4492772719
 C         -3.7336325620        1.4281579656       -0.7825196981
 C         -2.8084795067        1.0660442586       -1.7603754778
 C         -1.4601708837        1.0103645099       -1.4490797736
 C         -1.1218795239        1.2949998622       -0.1366731296
 C          1.3062642850       -0.5218843306       -0.5417015270
 N          0.1549502838       -1.3081371976       -0.5503052038
 C         -0.4456212102       -1.8540127142       -1.6802165027
 C          0.0089751314       -1.8888183907       -2.9890904606
 C         -0.8134857022       -2.4645060821       -3.9404439264
 C         -2.0614139926       -2.9849700970       -3.6067343245
 C         -2.5275286638       -2.9352233188       -2.3080948980
 C         -1.7159150621       -2.3647209214       -1.3372834363
 C         -1.8880108199       -2.1242740157        0.0689433491
 N         -2.9059675229       -2.4164841712        0.8615895473
 C         -2.7748962946       -2.0890869609        2.1329854777
 C         -1.6279984205       -1.5170573317        2.6813345295
 C         -0.5495325382       -1.2146368349        1.8668037799
 C         -0.7074541611       -1.4805070426        0.5168662935
 C          2.4883067085       -1.0251958169       -1.0712409680
 C          3.6579906670       -0.2747710110       -1.0450775203
 C          4.8510084382       -0.8104648780       -1.5836528414
 N          5.8061397433       -1.2585709697       -2.0296919074
 H          2.4479863900        2.5240068760        0.4496091690
 H          1.8746522252        1.7661964163        2.6803721505
 H          1.0459302582        2.5756747631        4.8461781365
 H         -1.3321672708        3.0334936451        5.2072532204
 H         -2.9775833681        2.6712944333        3.3766017280
 H         -4.7892389744        1.4614253620       -1.0132056346
 H         -3.1416706744        0.8365267547       -2.7599796442
 H         -0.7213700840        0.7652567256       -2.1985928258
 H          0.9660185881       -1.4738668983       -3.2693649043
 H         -0.4787394681       -2.5066405057       -4.9661322019
 H         -2.6712285832       -3.4260804049       -4.3804322288
 H         -3.4970211537       -3.3200567158       -2.0358879764
 H         -3.6261974896       -2.3165885153        2.7592460466
 H         -1.5779831284       -1.3169336576        3.7398313238
 H          0.3623333077       -0.8019196343        2.2741167688
 H          2.5051947474       -2.0262224993       -1.4759654517
  52
  -89.6087842734000       0.168721836171215      !
 N          5.9573723151        1.9262579629        0.7179587523
 C          4.9835405905        1.3618783664        0.5044005257
 C          3.7682399037        0.6901797408        0.2360808251
 C          2.5569341360        1.3018162991        0.5404552433
 C          1.3523165377        0.6572863468        0.2906420764
 N          0.1501246602        1.2607205833        0.6578828123
 C         -0.8953119596        0.6163974973        1.3082452374
 C         -0.8742890093       -0.5708591264        2.0223011760
 C         -2.0616927320       -1.0032106926        2.5823963474
 C         -3.2335001110       -0.2606762415        2.4620500033
 C         -3.2420289432        0.9575024175        1.8118636311
 C         -2.0605885894        1.4067742423        1.2385869557
 C         -1.6955548741        2.6015644523        0.5283225579
 N         -2.4338988651        3.6472691177        0.1964438214
 C         -1.8293792874        4.6072138444       -0.4778883374
 C         -0.4896270051        4.5731799589       -0.8601717500
 C          0.2978899062        3.4828095611       -0.5255774665
 C         -0.3208146517        2.4773587578        0.1972606719
 C          1.3588558429       -0.6151072767       -0.3304691400
 N          0.1630167081       -1.2474352744       -0.6679025409
 C         -0.9166572277       -0.6339464940       -1.2914810281
 C         -0.9495150180        0.5535926078       -2.0046724778
 C         -2.1629706562        0.9495298710       -2.5354475904
 C         -3.3084829980        0.1717236866       -2.3875747405
 C         -3.2641602235       -1.0457962157       -1.7376128087
 C         -2.0559899492       -1.4586087442       -1.1933286536
 C         -1.6389206179       -2.6415441551       -0.4920369434
 N         -2.3383485573       -3.7074491423       -0.1405144222
 C         -1.6900861832       -4.6477227805        0.5206676680
 C         -0.3431606323       -4.5736272097        0.8706098355
 C          0.4039969046       -3.4619134488        0.5146583682
 C         -0.2607641631       -2.4769526408       -0.1953755857
 C          2.5709652425       -1.2352564317       -0.6048202101
 C          3.7756067322       -0.6012018426       -0.3208802328
 C          4.9978329557       -1.2531027567       -0.6060130597
 N          5.9757101726       -1.8043852949       -0.8341293060
 H          2.5534571639        2.2732858952        1.0122905470
 H          0.0369690320       -1.1366630044        2.1495813466
 H         -2.0763938046       -1.9349848014        3.1274708143
 H         -4.1414448265       -0.6387981460        2.9057033547
 H         -4.1334285916        1.5599642029        1.7459618192
 H         -2.4506820800        5.4541034099       -0.7349931051
 H         -0.0687177583        5.3942649295       -1.4189728022
 H          1.3351696524        3.4279529548       -0.8257238676
 H         -0.0595617826        1.1473302874       -2.1537076601
 H         -2.2194833747        1.8807055689       -3.0788297959
 H         -4.2381200807        0.5219371964       -2.8088999518
 H         -4.1349482216       -1.6750857540       -1.6498450191
 H         -2.2801639725       -5.5114203006        0.7948643494
 H          0.1145911566       -5.3799021340        1.4218630918
 H          1.4457707579       -3.3758331660        0.7906717955
 H          2.5774668228       -2.2060889069       -1.0778891875
