  52
        -89.92982391
 N          5.9471035829       -1.8291606041        0.8437964922
 C          4.9688845071       -1.2865141765        0.5973485290
 C          3.7492170875       -0.6371022410        0.2952855014
 C          2.5416109854       -1.2566106718        0.5951042175
 C          1.3316146880       -0.6342594853        0.3130455899
 N          0.1346194174       -1.2619363437        0.6549987866
 C         -0.2757142746       -2.5182760728        0.2207389810
 C          0.4288087731       -3.4784331013       -0.4883124102
 C         -0.2364313323       -4.6414229349       -0.8316363612
 C         -1.5711125030       -4.8458554428       -0.4905481902
 C         -2.2834992390       -3.8843073670        0.1980011200
 C         -1.6331938494       -2.7113302251        0.5555608640
 C         -2.0618186859       -1.5183975062        1.2323327720
 N         -3.2430048452       -1.2091287202        1.7412910154
 C         -3.3400697526       -0.0330130448        2.3312718734
 C         -2.2766340443        0.8538099651        2.4921627747
 C         -1.0310785320        0.5402248799        1.9742851321
 C         -0.9384921584       -0.6556508159        1.2820578497
 C          1.3310573506        0.6339398821       -0.3139056172
 N          0.1336828501        1.2611938488       -0.6554291014
 C         -0.2769865653        2.5167925339       -0.2193232478
 C          0.4268847499        3.4752594566        0.4926645586
 C         -0.2389914045        4.6369887359        0.8389672966
 C         -1.5735409881        4.8419402136        0.4975845089
 C         -2.2851029578        3.8822352743       -0.1944039171
 C         -1.6342352973        2.7103859731       -0.5546885571
 C         -2.0622876039        1.5186274848       -1.2339443003
 N         -3.2430000544        1.2104980784       -1.7447133263
 C         -3.3398631573        0.0351156933       -2.3362452359
 C         -2.2768148060       -0.8523661408       -2.4961936954
 C         -1.0317165959       -0.5399914994       -1.9764248152
 C         -0.9391177379        0.6556078771       -1.2836586168
 C          2.5404322527        1.2574487642       -0.5960541292
 C          3.7486442197        0.6391790502       -0.2961393385
 C          4.9673595190        1.2898631989       -0.5989030350
 N          5.9441760510        1.8345825877       -0.8461599421
 H          2.5425003332       -2.2184678764        1.0860427329
 H          1.4589473922       -3.3295675069       -0.7769287839
 H          0.2935214946       -5.4058477062       -1.3799162403
 H         -2.0518178855       -5.7687043297       -0.7773886765
 H         -3.3211203475       -4.0205630589        0.4566051023
 H         -4.3188746234        0.2096105131        2.7207618640
 H         -2.4220028348        1.7797007111        3.0255457229
 H         -0.1838581935        1.1959071734        2.1156099039
 H          1.4568273791        3.3257800097        0.7817056601
 H          0.2901870419        5.3997934253        1.3902983833
 H         -2.0548613948        5.7636453512        0.7871546924
 H         -3.3225906778        4.0189112106       -0.4533401231
 H         -4.3182241673       -0.2064317749       -2.7275731506
 H         -2.4221694952       -1.7778451064       -3.0303539490
 H         -0.1848612311       -1.1964219064       -2.1166881090
 H          2.5403333551        2.2192721603       -1.0870096031
  52
        -89.92971055
 N          5.7962067811       -2.3980340845       -0.4222288961
 C          4.8454226119       -1.7602640530       -0.4595545213
 C          3.6616088827       -0.9870007466       -0.4895571119
 C          2.4777643194       -1.5110970358        0.0170690846
 C          1.3018470340       -0.7716107290       -0.0085108149
 N          0.1188463582       -1.3352690063        0.4676596421
 C         -0.0930037781       -1.8066551751        1.7592933453
 C          0.8183182698       -2.0029711260        2.7845211275
 C          0.3325350553       -2.4507845593        3.9995204904
 C         -1.0248851959       -2.6898318512        4.1983541950
 C         -1.9392493128       -2.4786747996        3.1856770690
 C         -1.4719368568       -2.0331176825        1.9571141838
 C         -2.1248001581       -1.6894419060        0.7241352760
 N         -3.4072501607       -1.7262737286        0.4018857831
 C         -3.7151596656       -1.3684301549       -0.8302736299
 C         -2.7798270669       -1.0206032334       -1.8035930648
 C         -1.4326017143       -0.9864820837       -1.4845289077
 C         -1.1061076200       -1.2764614380       -0.1703599810
 C          1.3196232913        0.5454235642       -0.5260669547
 N          0.1679251541        1.3315850790       -0.5247316539
 C         -0.7149762854        1.4716378849        0.5396853295
 C         -0.5176423504        1.1806299339        1.8798745031
 C         -1.5709824309        1.4062118883        2.7460727592
 C         -2.7784430801        1.9368980215        2.2997450897
 C         -2.9544494562        2.2938029983        0.9775774153
 C         -1.9108859110        2.0691841179        0.0907045231
 C         -1.7343895609        2.3234331795       -1.3126164459
 N         -2.5700685508        2.8572766219       -2.1877947915
 C         -2.1417693850        2.9518090686       -3.4324304470
 C         -0.8915139740        2.5151119495       -3.8666161084
 C         -0.0053626127        1.9474685159       -2.9646705335
 C         -0.4350675274        1.8634002553       -1.6512357908
 C          2.4998245226        1.0573375305       -1.0511675420
 C          3.6694439515        0.3060914117       -1.0428296401
 C          4.8596572727        0.8498436183       -1.5794202243
 N          5.8116646179        1.3047022645       -2.0253663179
 H          2.4624474074       -2.5196277882        0.4027952663
 H          1.8721116501       -1.8057633323        2.6533586013
 H          1.0242155845       -2.6147508266        4.8122307096
 H         -1.3614878363       -3.0391328005        5.1625366958
 H         -2.9946921880       -2.6455263030        3.3278203003
 H         -4.7698909644       -1.3832968728       -1.0667223737
 H         -3.1056104808       -0.7857602814       -2.8044594576
 H         -0.6839943988       -0.7548831648       -2.2291959016
 H          0.4239018196        0.7964472000        2.2428671005
 H         -1.4492418201        1.1658978069        3.7914282412
 H         -3.5794968095        2.0873477992        3.0067905210
 H         -3.8712589264        2.7382016561        0.6255814990
 H         -2.8392567930        3.3953070674       -4.1296958067
 H         -0.6173540855        2.6149632103       -4.9050587750
 H          0.9620420828        1.5848406467       -3.2834463167
 H          2.5162678688        2.0654911750       -1.4380991309
  52
        -89.92954646
 N          5.9715400861       -1.1325988738        1.6655774378
 C          4.9934861424       -0.8045605055        1.1672994181
 C          3.7733320853       -0.3997561884        0.5778184543
 C          2.5660757171       -0.8063985261        1.1356524792
 C          1.3567178562       -0.4251283873        0.5690700215
 N          0.1577471014       -0.8919193248        1.1065077349
 C         -0.9028697834       -1.3950590112        0.3628656645
 C         -0.9044852957       -1.8646387212       -0.9407402669
 C         -2.1034388943       -2.3192029171       -1.4569221520
 C         -3.2647016599       -2.3350808801       -0.6886839945
 C         -3.2509588574       -1.9342762100        0.6326566340
 C         -2.0576104137       -1.4700212498        1.1680811876
 C         -1.6699450900       -1.0091008936        2.4728864589
 N         -2.3916872427       -0.8803831492        3.5734833876
 C         -1.7678280081       -0.4111711959        4.6375799324
 C         -0.4242503507       -0.0416455024        4.6596010851
 C          0.3460857854       -0.1647792677        3.5139728130
 C         -0.2930687083       -0.6725870214        2.3960128671
 C          1.3550458067        0.4315845706       -0.5582487226
 N          0.1556271301        0.8963439753       -1.0959519558
 C         -0.9092517273        1.3983387588       -0.3577455636
 C         -0.9194759833        1.8671220961        0.9461365031
 C         -2.1218251513        2.3216213464        1.4548112834
 C         -3.2783026385        2.3382193753        0.6793554867
 C         -3.2562459477        1.9371845178       -0.6418009306
 C         -2.0595420267        1.4727657273       -1.1695790558
 C         -1.6649666488        1.0113004657       -2.4720586755
 N         -2.3812666558        0.8801859187       -3.5759808841
 C         -1.7521293387        0.4087693762       -4.6359210033
 C         -0.4085467264        0.0389898222       -4.6503070785
 C          0.3560818925        0.1651064185       -3.5012679158
 C         -0.2884454435        0.6758935151       -2.3877669768
 C          2.5626551211        0.8104274851       -1.1302806015
 C          3.7715150405        0.3977219349       -0.5806079030
 C          4.9889802634        0.7932266528       -1.1818290949
 N          5.9626885637        1.1154297701       -1.6919963293
 H          2.5688954524       -1.4581744686        1.9967993826
 H         -0.0016765537       -1.8876011812       -1.5333063720
 H         -2.1357251382       -2.6724220054       -2.4765883523
 H         -4.1822311874       -2.6884992780       -1.1329846581
 H         -4.1341788063       -1.9788275352        1.2489636080
 H         -2.3758172724       -0.3181677089        5.5269849941
 H          0.0130062789        0.3429167538        5.5676331605
 H          1.3860305097        0.1309560107        3.5038734732
 H         -0.0207361531        1.8897764083        1.5448903580
 H         -2.1607695424        2.6739379657        2.4745673440
 H         -4.1986934305        2.6917061776        1.1178955787
 H         -4.1355443116        1.9813687268       -1.2637835577
 H         -2.3557520390        0.3131744414       -5.5280254074
 H          0.0330010665       -0.3489589816       -5.5547557386
 H          1.3955564398       -0.1317453746       -3.4852159068
 H          2.5628815618        1.4632622957       -1.9906054714
  52
        -89.92904502
 N          5.9100741181       -1.2095110269        1.6309124662
 C          4.9420958727       -0.8388483956        1.1430299077
 C          3.7238624051       -0.4158289490        0.5628992757
 C          2.5153186932       -0.8300426170        1.1102401545
 C          1.3041802454       -0.4303154340        0.5573394408
 N          0.1140915491       -0.8980032702        1.1109928441
 C         -0.9597957727       -1.4351493261        0.4136920551
 C         -1.0318921268       -1.8360673986       -0.9108244250
 C         -2.2286260579       -2.3641236386       -1.3577733673
 C         -3.3191593622       -2.5186162297       -0.5057193236
 C         -3.2344889859       -2.1724226624        0.8280817482
 C         -2.0443562867       -1.6315903204        1.2941445899
 C         -1.5985192123       -1.2024800916        2.5908480959
 N         -2.2474549548       -1.1732920393        3.7433058984
 C         -1.5835444703       -0.7056460434        4.7833257796
 C         -0.2722198106       -0.2360173356        4.7299869509
 C          0.4215372190       -0.2563064075        3.5305300786
 C         -0.2564370052       -0.7687770248        2.4371126615
 C          1.3029753471        0.4440681232       -0.5544475933
 N          0.1122663637        0.9107195009       -1.1059920893
 C         -0.9733922369        1.4206310860       -0.4052956220
 C         -1.0550631128        1.8110687164        0.9217853268
 C         -2.2657713606        2.3014288818        1.3742386276
 C         -3.3604408446        2.4342930118        0.5240284554
 C         -3.2641751629        2.1101654569       -0.8145924933
 C         -2.0599057253        1.6060608372       -1.2853939566
 C         -1.6001641905        1.2103948328       -2.5878870003
 N         -2.2415280023        1.2011631810       -3.7447072661
 C         -1.5627670049        0.7752934420       -4.7931118510
 C         -0.2452205559        0.3236752694       -4.7425971993
 C          0.4398778526        0.3212546502       -3.5378808466
 C         -0.2513491799        0.7970493428       -2.4362556301
 C          2.5142980486        0.8395541402       -1.1108950711
 C          3.7228835684        0.4152966961       -0.5716768740
 C          4.9405530516        0.8279179436       -1.1605645065
 N          5.9134120092        1.1705292387       -1.6588064041
 H          2.5163261018       -1.5031658185        1.9548504080
 H         -0.1832310591       -1.7586548061       -1.5738462196
 H         -2.3138490773       -2.6697592231       -2.3896698417
 H         -4.2359176531       -2.9335778418       -0.8955764626
 H         -4.0593706299       -2.3174598953        1.5068088828
 H         -2.1303127898       -0.6966502444        5.7161963899
 H          0.1992678897        0.1460034607        5.6217467886
 H          1.4336575409        0.1182748601        3.4632246551
 H         -0.2037912336        1.7541987418        1.5832380773
 H         -2.3585313830        2.5941829119        2.4092361574
 H         -4.2889186944        2.8175393048        0.9185364814
 H         -4.0908652493        2.2440939538       -1.4933569680
 H         -2.1028449819        0.7843387418       -5.7298997092
 H          0.2382057367       -0.0274058583       -5.6406074003
 H          1.4562734860       -0.0418757679       -3.4749282793
 H          2.5162549992        1.5162168249       -1.9525440167
