89
 energy: -140.802484688550 gnorm: 0.000048773969 xtb: 6.7.1 (edcfbbe)
C           -9.07948313062836        2.60263271813936        2.11096108233851
C           -7.76844244681878        2.99041537662226        1.87909527344120
C           -6.86553458444993        2.09388660306731        1.34083897789822
C           -7.27001793560321        0.79668143843467        1.02721013701655
C           -6.31525829538947       -0.15533452226674        0.45909249382015
N           -6.75086298207571       -1.37638934683873        0.15839219735445
C           -5.84926750975785       -2.20859526132135       -0.35714296332316
C           -6.28504849629250       -3.55905532753791       -0.71327505441155
C           -7.60394064897667       -3.95289569100992       -0.49029293706070
C           -8.01265273920806       -5.22915267365547       -0.82645401072944
C           -7.11239050661321       -6.12253056258609       -1.38722242682571
C           -5.79975015299584       -5.73646508130653       -1.61296416611116
C           -5.38490548272680       -4.46180994609657       -1.27831167415058
N           -4.57489827133387       -1.88686562003004       -0.56798179077699
C           -4.22526150164855       -0.64683169079630       -0.23571708486611
C           -2.83504483390982       -0.24583492997328       -0.44543904805121
C           -1.91710698541569       -1.13551382852030       -1.00272412237345
C           -0.61291675397855       -0.73851587290334       -1.20654748344248
C           -0.19603789357797        0.54245139378352       -0.84982397725815
N            1.13083401319987        0.92169617659057       -1.09686100994799
C            1.54034714995097        2.03180464049490       -1.80890003867661
C            0.78348031927929        2.94450646446053       -2.52858442806750
C            1.45190587223024        3.96642037743594       -3.17448194973712
C            2.84055761094491        4.07421365431840       -3.12421609593562
C            3.60122145704491        3.14723660410613       -2.44008238307404
C            2.95075363382616        2.11234698565516       -1.77999480443977
C            3.40731395508668        0.98789705668569       -1.01107932148028
C            4.66387007165817        0.54890549236332       -0.62126605129290
C            4.75500710222041       -0.60040556410431        0.15064508363409
N            6.01782321569223       -1.08185134804040        0.54157046934130
C            7.07407714781420       -1.34483421933594       -0.30547003054391
C            7.14569834043991       -1.23937308883576       -1.68792334481103
C            8.33265556093154       -1.59068366084783       -2.30148966594230
C            9.42630871387625       -2.04394181611385       -1.56545732171428
C            9.35524967807459       -2.16878560836586       -0.19222847375936
C            8.17202413001604       -1.82236862956590        0.44833357673536
C            7.74650147031517       -1.84023446436338        1.81975714477515
C            8.36857729076582       -2.19118527898275        3.01143147912205
C            7.65987464305273       -2.06840612167337        4.19006562491610
C            6.35108941994947       -1.58872560987186        4.19281799810053
C            5.71040455624615       -1.23414391411927        3.02124753336686
C            6.40983729145868       -1.37614883666239        1.83041023935905
C            3.60306328505623       -1.29053041779729        0.54697946358231
C            2.34463848306898       -0.85660964348560        0.18171073190841
C            2.25085154934035        0.27601384386247       -0.61499707379899
C           -1.10198156575313        1.44009026524212       -0.26185274425126
C           -0.68459467047639        2.78053096009855        0.19110258368846
C            0.45014776051340        2.94543089982887        0.98084665784316
C            0.83380117916130        4.20608458610101        1.39943078742745
C            0.09038750965340        5.31727135804779        1.03822773546889
C           -1.04961115244214        5.16063952985829        0.26750743277267
C           -1.43815837442801        3.90071965024921       -0.14883455851267
C           -2.41526400594056        1.03086949136322       -0.08183686455645
N           -5.06204035277723        0.25286034925374        0.27500940878522
C           -8.58984894021815        0.41320043491951        1.26215338836918
C           -9.48794450446297        1.31405518712680        1.80143759198008
H           -9.78324836572998        3.30491403295321        2.53260606792492
H           -7.45058221493769        3.99403442822020        2.11996671803190
H           -5.84160607456392        2.37855117069079        1.15540377627122
H           -8.29038582382812       -3.24463079038512       -0.05320840076344
H           -9.03499238023071       -5.52987623473924       -0.65150642215097
H           -7.43404640374318       -7.11965743358813       -1.64908850458130
H           -5.09928381382650       -6.43224033958601       -2.05066515181432
H           -4.36769388554554       -4.14445663721466       -1.44662371014517
H           -2.24640636012504       -2.12397804383512       -1.28011847659911
H            0.09733179686958       -1.41220438012149       -1.66249792465586
H           -0.29022895499056        2.85815718410339       -2.58681261289883
H            0.88543333504937        4.69530263728884       -3.73509793647144
H            3.32538462086385        4.88949125296829       -3.64059016285193
H            4.67829138953258        3.21840190412526       -2.41934649453282
H            5.55341859919142        1.09256245472101       -0.89973067423889
H            6.29955979742243       -0.90102717505166       -2.26717277694517
H            8.41432105646256       -1.51511190488269       -3.37625126934291
H           10.33813005788203       -2.30649336828264       -2.08203887368097
H           10.19883414379793       -2.53209045141890        0.37589398498936
H            9.38737569431451       -2.54962070994824        3.01211694680745
H            8.12499023935015       -2.33853766386001        5.12696659096855
H            5.82718481342776       -1.48984070033195        5.13263615467420
H            4.70121777686749       -0.85053636693391        3.03382415809619
H            3.71049406754326       -2.18330731701307        1.14436159922751
H            1.46297669965484       -1.38832619823849        0.50590373487482
H            1.02673380837126        2.08278037604536        1.28206240271145
H            1.71745125613830        4.31988267421156        2.01018393273327
H            0.39667783008167        6.30183793030883        1.35956625818116
H           -1.63738201327152        6.02290360851624       -0.01173834733711
H           -2.32198770748109        3.78089242687629       -0.75932177600327
H           -3.12883573578445        1.69834566224332        0.37551614422263
H           -8.89016323258718       -0.59328521074544        1.01593250283896
H          -10.50899870913373        1.01232022178417        1.98204734932901
