89
 energy: -140.725736522778 gnorm: 0.000134186972 xtb: 6.7.1 (edcfbbe)
C           -7.21670860493294        5.35755843524682       -0.90638946686491
C           -8.10158042681519        4.46675929519982       -0.31726208337395
C           -7.69337477302469        3.18431303845686       -0.00821391669937
C           -6.38797673297636        2.77467490312709       -0.28610864360323
C           -5.95479809405075        1.42060887513450        0.04188596025489
N           -6.86172426777996        0.58184705076237        0.58329003071529
C           -6.42176591918193       -0.66088821118853        0.87031286908523
C           -7.37251924879384       -1.60342817569001        1.44956437752097
C           -8.68854800609428       -1.21184192474714        1.70289330107197
C           -9.58748486570926       -2.10462636219023        2.25190952445532
C           -9.18897576525259       -3.39777962283445        2.55626311824833
C           -7.88280693807605       -3.79511193826245        2.30678236764761
C           -6.97945458854460       -2.90739454597734        1.75874786277435
N           -5.19082779432625       -1.05774464521880        0.66035671802619
C           -4.31752208136599       -0.17715546554969        0.11170186879611
C           -2.97426668314339       -0.57164840793801       -0.12790499942711
C           -2.52532049124071       -1.87421537011396        0.18600471226262
C           -1.22336466605115       -2.23323090109358       -0.04186489853895
C           -0.31286188211520       -1.32433979314085       -0.59429665724212
N            1.02424402903878       -1.71608112925486       -0.77513918515074
C            1.44806825927963       -2.79428440845683       -1.52691365865403
C            0.69737287891628       -3.71157240194670       -2.24885727822682
C            1.37848680506476       -4.69994819850751       -2.93685431791259
C            2.76944379262900       -4.77307909492545       -2.91501996506875
C            3.52350117889138       -3.84928914986433       -2.21239788622946
C            2.86240157853650       -2.84802955507623       -1.51621760200797
C            3.30031587334582       -1.74246878822393       -0.70673797787075
C            4.54512467023698       -1.27684495351455       -0.32735982910371
C            4.61306613770341       -0.15732600594832        0.50037492130366
N            5.85619221235952        0.33888733168362        0.89791082029452
C            6.90153982292665       -0.40995580864243        1.40517651827851
C            6.96141636956792       -1.76813937741899        1.68951738644944
C            8.13294454162401       -2.26303208911432        2.23351016690591
C            9.21765776312291       -1.43209368916106        2.50097692581652
C            9.15318495045970       -0.07278261499909        2.24784671192941
C            7.98918521319054        0.44508332811661        1.70096126833446
C            7.57069948294085        1.77633287147728        1.34473080384927
C            8.19494615632573        3.01372846874135        1.38292625070591
C            7.49797911304263        4.12041243269688        0.92947961393177
C            6.20547515678468        3.99726345031313        0.42622473854312
C            5.56360726943321        2.77302077113474        0.37705499859581
C            6.24672501670075        1.66401627064298        0.85914265738037
C            3.44083030847477        0.47123977120892        0.95448665684734
C            2.19556050247823        0.01797438129498        0.58488584469621
C            2.12309960179173       -1.07928732389549       -0.26890064795611
C           -0.74105629555264       -0.02374662515425       -0.93842699734258
C            0.16579830590421        0.93718717303538       -1.59269533435152
C            0.24094961566503        2.25105144934622       -1.13585530424760
C            1.08573674083412        3.16066476427303       -1.74440883630729
C            1.86639079889487        2.77338616893618       -2.82130900856255
C            1.78761023848114        1.47361575922364       -3.29305555866419
C            0.94225893330405        0.56264476036432       -2.68670059849719
C           -2.04965144760577        0.33067428333781       -0.69024807996357
N           -4.71404404110030        1.08096055798987       -0.20567268457432
C           -5.50339266937659        3.67743699624801       -0.88009925632088
C           -5.91771814301118        4.95756830346147       -1.18705335294948
H           -7.53815426454309        6.36008257845768       -1.14732000176845
H           -9.11361549511290        4.77558718260642       -0.09863011900751
H           -8.36972383416680        2.47922585797809        0.45062981713314
H           -8.98337630682875       -0.20221290408913        1.46045179185474
H          -10.60394384953393       -1.79309575226834        2.44469613293254
H           -9.89373235169209       -4.09441393337693        2.98569152096617
H           -7.57091595214497       -4.80237610124902        2.54249820669928
H           -5.96017089517065       -3.20172745796727        1.55972190342574
H           -3.22748222098928       -2.56965993208645        0.61834369601374
H           -0.87450086236543       -3.22014761373155        0.22717627336835
H           -0.38002438110101       -3.65126540016552       -2.27497501994995
H            0.81902765520273       -5.42824178915466       -3.50477587811789
H            3.26413557054336       -5.56082663206966       -3.46320576492997
H            4.60139160997687       -3.90237476336718       -2.20891080241687
H            5.44662487404182       -1.74835049954362       -0.68540370177557
H            6.11848353272860       -2.41726107525327        1.50987271578686
H            8.20513228879053       -3.31626811469388        2.46048463327074
H           10.11639135229194       -1.85542044412809        2.92400946627575
H            9.98703424762473        0.57320706024691        2.47624897589061
H            9.20389708971121        3.10882578202248        1.75405385843623
H            7.96504318427155        5.09365150579436        0.95483468095604
H            5.69365716337087        4.87550836740287        0.06194217818952
H            4.57020151814821        2.68435258658334       -0.03356989627262
H            3.52764138732987        1.30349083274885        1.63552716787690
H            1.30060702480075        0.48763002952992        0.96009134087412
H           -0.36077230956817        2.55197729915741       -0.28976426689777
H            1.13687245137571        4.17499358589646       -1.37519526296659
H            2.52962339299611        3.48294690387201       -3.29402820802555
H            2.38398454981578        1.16775724033411       -4.14050378322435
H            0.86868124745298       -0.44151162977137       -3.07906780010239
H           -2.40428315228773        1.31364823646440       -0.96084528978621
H           -4.49659079799827        3.35168492169568       -1.09371104623124
H           -5.22755910069585        5.64974315524892       -1.64747847262844
