  42
  -72.7515283400000        1.00000000000000      !
 N          4.8700653343        3.1079458826       -1.1301908901
 C          5.2097008217        2.0847798555       -0.7218153000
 C          5.7059051077        0.8735293552       -0.2274773328
 C          7.1029372718        0.8561179877       -0.0878501866
 N          8.2476054191        0.8395176783        0.0282094800
 C          4.9790486472       -0.2550775553        0.1305923377
 C          3.5890464005       -0.4520107089        0.0696579449
 C          2.6488113331        0.4848542250       -0.4336057131
 C          1.3089282077        0.2350536443       -0.4282207460
 C          0.7718154436       -0.9861660179        0.0552782318
 C         -0.6290664872       -1.2526563241        0.0411546269
 C         -1.0948118475       -2.5582797648       -0.2438829629
 C         -2.4050590331       -2.8104813446       -0.5137972452
 C         -3.3801727024       -1.7742143961       -0.4742402588
 C         -4.7251272923       -2.0067323117       -0.7918006496
 C         -5.6573062949       -0.9978670779       -0.7174412015
 C         -5.2927827481        0.2917425957       -0.2799231685
 C         -6.2328169705        1.3364699596       -0.1636557217
 C         -5.8517274909        2.5876444256        0.2882772845
 C         -4.5428200448        2.8364202465        0.6478231545
 C         -3.5624670657        1.8237562369        0.5453522984
 C         -2.2281194185        2.0255954904        0.9397739121
 C         -1.2869070972        1.0286719003        0.8037915486
 C         -1.6108860717       -0.2139492926        0.2366996070
 C         -2.9705733402       -0.4782353419       -0.0676618454
 C         -3.9392595758        0.5447039513        0.0629801415
 C          1.7000253602       -1.9591766802        0.5004451475
 C          3.0319569332       -1.6812989718        0.5206907908
 F          3.8718126508       -2.6223444137        1.0095666687
 H          5.5676371191       -1.0818613074        0.5078892178
 H          3.0148859876        1.4124791722       -0.8402840240
 H          0.6396645074        0.9567458743       -0.8714314257
 H         -0.3727740814       -3.3550170709       -0.3404901708
 H         -2.7225152834       -3.8046689580       -0.7923777687
 H         -5.0234997102       -2.9989842323       -1.0982501530
 H         -6.6872597985       -1.1873560220       -0.9817506162
 H         -7.2617134040        1.1432997672       -0.4289367786
 H         -6.5880553832        3.3734220031        0.3687959456
 H         -4.2498036349        3.8087045215        1.0150640026
 H         -1.9444180200        2.9781209245        1.3626416903
 H         -0.2845425042        1.1980747668        1.1670598381
 H          1.3623621463       -2.9037488087        0.8969009896
