  68
        -99.04688758
 C         -7.0753584052        0.5368572984        0.3836525928
 C         -6.2854454030       -0.2166363619        1.2367931491
 C         -4.9112993385       -0.2169395845        1.0951188001
 C         -4.3032957973        0.5378334668        0.0933548217
 C         -2.8397570590        0.5649857629       -0.0523297073
 C         -2.0806628232       -0.5537630715       -0.0007990895
 C         -2.6568136658       -1.9072810974       -0.0086682123
 C         -2.1524139328       -2.8849134724        0.8469821214
 C         -2.6747697151       -4.1644365863        0.8386595125
 C         -3.6988349088       -4.4922691654       -0.0341871962
 C         -4.1934568804       -3.5331349952       -0.9030178617
 C         -3.6776921998       -2.2515213622       -0.8927493776
 C         -0.6138488649       -0.4879036652        0.0565066345
 C          0.1673294613       -1.3211038215       -0.7426358975
 C          1.5430517245       -1.2282996584       -0.7326661155
 C          2.1823864082       -0.3106782296        0.1014165990
 N          3.5731222869       -0.1789768429        0.0907516160
 C          4.1485273834        1.0869286129        0.2446221356
 C          5.3443589521        1.2406677013        0.9458604359
 C          5.9089350544        2.4925437955        1.0941280069
 C          5.2906817298        3.6100018741        0.5576645094
 C          4.1000606997        3.4637663607       -0.1354014681
 C          3.5325857002        2.2153815126       -0.2978860006
 C          4.3847985312       -1.3031007404       -0.0918519853
 C          4.0319600041       -2.5280835327        0.4745382348
 C          4.8337012240       -3.6374929450        0.2902312978
 C          6.0001061457       -3.5455141748       -0.4514243882
 C          6.3569189243       -2.3308292254       -1.0139380826
 C          5.5574914526       -1.2176697836       -0.8423702091
 C          1.4052602930        0.4839364109        0.9463695500
 C          0.0315699482        0.3995431662        0.9176543358
 C         -2.2500634740        1.8998910335       -0.2517619699
 C         -1.2869609571        2.1196888668       -1.2353989361
 C         -0.7422398594        3.3761906435       -1.4157741745
 C         -1.1516089456        4.4353032651       -0.6218599860
 C         -2.1227225361        4.2323365759        0.3442221925
 C         -2.6733772849        2.9771563911        0.5238655034
 C         -5.1054973356        1.3076030526       -0.7470944661
 C         -6.4804477257        1.3004692706       -0.6068361477
 H         -8.1496123014        0.5332250725        0.4941893543
 H         -6.7434537713       -0.8041963502        2.0191917291
 H         -4.2977663611       -0.7957186701        1.7695157057
 H         -1.3545270722       -2.6288971854        1.5298805402
 H         -2.2807544733       -4.9097032912        1.5144581823
 H         -4.1060176034       -5.4924616616       -0.0413956051
 H         -4.9838825818       -3.7867535798       -1.5943778753
 H         -4.0579828805       -1.5100282022       -1.5795026687
 H         -0.3158434066       -2.0258857038       -1.4041615877
 H          2.1330739569       -1.8581034049       -1.3820427052
 H          5.8232452091        0.3729996293        1.3753369794
 H          6.8342643631        2.5966330193        1.6413568504
 H          5.7326906891        4.5870376445        0.6794556929
 H          3.6118104654        4.3283091416       -0.5605763467
 H          2.6075779314        2.1053755622       -0.8442922290
 H          3.1277991079       -2.5997378885        1.0609958144
 H          4.5490529927       -4.5791390557        0.7362066244
 H          6.6259571108       -4.4136898325       -0.5905735995
 H          7.2610977582       -2.2508427680       -1.5992398799
 H          5.8324464266       -0.2746762014       -1.2914480857
 H          1.8913470309        1.1722196607        1.6217352876
 H         -0.5546095588        1.0187163338        1.5796275826
 H         -0.9737436352        1.2990590575       -1.8636715222
 H          0.0031051224        3.5324915478       -2.1825355003
 H         -0.7209249066        5.4159039004       -0.7607220251
 H         -2.4525905130        5.0562705122        0.9603422643
 H         -3.4285726776        2.8197383381        1.2810646948
 H         -4.6423212393        1.9029616360       -1.5213966153
 H         -7.0908268386        1.8943978009       -1.2717068110
