71
 energy: -110.349018316204 gnorm: 0.000091554596 xtb: 6.7.1 (edcfbbe)
C           -4.60689384452749       -2.68746950591505        1.11505178092680
C           -3.60292163351463       -3.59105628767242        0.84279369582397
C           -2.32375899243095       -3.14501205324341        0.45093745928821
C           -1.19715870850755       -4.00888460762061        0.20181352981159
C           -1.23478742242357       -5.42482528962058        0.19340399482717
C           -0.05248116351197       -6.11268211810637       -0.02632448384105
C            1.13953608457031       -5.44178209152541       -0.23746390708019
C            1.12626250941308       -4.02427382513621       -0.23041090836823
C            2.26761418672251       -3.17769562225559       -0.46259098638221
C            3.54960286382355       -3.64373708784234       -0.82424532840335
C            4.57458274203447       -2.75692486185045       -1.07032638241303
C            4.38275328566793       -1.38330718313505       -0.98158618038216
C            3.11805594432359       -0.90282499616847       -0.60931422271819
N            2.87153556095211        0.47695249930392       -0.53384892785457
C            3.65933793076852        1.41267337195714        0.10097173872588
C            4.80729665772404        1.23117224604665        0.86185203745762
C            5.39674935486165        2.35135470199985        1.41925836683529
C            4.85723245225422        3.62236243238623        1.23622326441291
C            3.69947476545935        3.80660630963913        0.49996599461939
C            3.08963788479814        2.69818874949912       -0.06720753209831
C            1.89356514970879        2.51368624211198       -0.84500792347755
C            0.93458909538383        3.38320451683573       -1.34121564609076
C           -0.11567604074848        2.86299201090517       -2.07567472174203
C           -0.20042152061355        1.49749849581067       -2.33550692504865
C            0.75182166340374        0.61312832235595       -1.86483708811416
C            1.79341054715234        1.12475713675874       -1.10030392519129
C            2.09463536017298       -1.78633417844201       -0.34263533186620
N           -0.03158606245529       -3.40415903219997       -0.01207646456433
C           -2.13174944306337       -1.75752694364672        0.32386338784195
C           -3.13265748544553       -0.85673031796526        0.61849243545026
N           -2.86339288178339        0.51837584722237        0.53826197741679
C           -3.65448515007125        1.47168416526147       -0.06620262816566
C           -4.83293754350873        1.31605752353814       -0.78500860486419
C           -5.42046352086706        2.45002323053103       -1.31601925391803
C           -4.84928271770810        3.70932132412626       -1.14918685085843
C           -3.66167154160786        3.86762174217713       -0.45577354527129
C           -3.05387657212696        2.74514710725817        0.08543503636462
C           -1.83601347195570        2.53487589693541        0.82170253813596
C           -0.84661989589004        3.38491475845745        1.29120814134169
C            0.21541002313359        2.84324893849843        1.99255009630388
C            0.28326437853120        1.47547268228386        2.24472195174136
C           -0.69882609570838        0.61030640925386        1.80036040910742
C           -1.75439476458673        1.14352309198962        1.07032066362939
C           -4.39415368328839       -1.31726862879356        1.02405670208163
H           -5.57771974330232       -3.04807994662966        1.42445829506738
H           -3.79908868677091       -4.64705971707737        0.94490512587460
H           -2.16278731280305       -5.94670895841450        0.35600910962025
H           -0.06128188609365       -7.19484923117997       -0.03244463134088
H            2.05905342732966       -5.97679370941131       -0.40588510501877
H            3.73175515952375       -4.70275978721392       -0.92093518471565
H            5.54689680903064       -3.13331178642390       -1.35547408844898
H            5.17644325516221       -0.69600421759500       -1.22765913838387
H            5.21961888716214        0.24713660567449        1.02385697907683
H            6.29159168987188        2.23677648082226        2.01299913241258
H            5.34725986990195        4.47350028939396        1.68546739830018
H            3.27476411297764        4.79088256700139        0.37344527166342
H            1.01089068831052        4.44390835509186       -1.15866110101361
H           -0.87869603470925        3.52079803994594       -2.46343433439729
H           -1.02425708852242        1.12132583015480       -2.92412844705704
H            0.69122204302285       -0.43928686660030       -2.09608012251950
H            1.13577393671324       -1.41645820066763       -0.01669336800924
H           -1.17636710178515       -1.40421711727569       -0.02929302632383
H           -5.27045425568288        0.34119991505632       -0.93574489392710
H           -6.33903185217947        2.35555114244954       -1.87612659824436
H           -5.33850589539485        4.57182072523007       -1.57710430074807
H           -3.21322429869987        4.84282633533965       -0.34167453648034
H           -0.90922411639026        4.44749713558669        1.11451287884659
H            1.00128215353772        3.48560647087012        2.35990879418337
H            1.11744383129859        1.08218977567914        2.80697514462819
H           -0.65017585863983       -0.44358902858168        2.02756221534925
H           -5.16952356437902       -0.61776573025005        1.29306680514102
