71
 energy: -110.349054292678 gnorm: 0.000061276422 xtb: 6.7.1 (edcfbbe)
C            2.39155542272350       -4.73613867812092        1.06005885767423
C            3.36834955273540       -3.80291886146273        0.78704335859535
C            3.01788591078464       -2.48582463305070        0.42512277793707
C            3.95314046886330       -1.41516624648784        0.19095659250317
C            5.36484785449088       -1.52858303195758        0.18260936822769
C            6.11476272551933       -0.38068704372874       -0.01684993701774
C            5.51039167092797        0.85069253673466       -0.21086206407335
C            4.09534115815876        0.91273524992762       -0.20679272521366
C            3.29775081390102        2.09044227839578       -0.43476030651842
C            3.80593205420683        3.35461262350988       -0.79891523101328
C            2.95038929990567        4.40162657704631       -1.06569265287574
C            1.57010844198420        4.24866840060856       -1.00219047148156
C            1.04806053464173        3.00253010424248       -0.62361420041096
N           -0.33681277300868        2.77725623278718       -0.58710914897898
C           -1.28876582491629        3.58992998932325       -0.01054617103619
C           -1.12691412542499        4.75996442981902        0.72058945117245
C           -2.26269037291711        5.37587662476130        1.21394815897250
C           -3.53059919333094        4.84124913655190        0.99747315736946
C           -3.69622718485211        3.66115070785857        0.29335095554420
C           -2.57189195262475        3.02466883130455       -0.20955206469390
C           -2.36909885145096        1.80413257410858       -0.94348320504244
C           -3.22827988696679        0.83686655382996       -1.44171577951642
C           -2.69186846908809       -0.23880528415711       -2.12602955198765
C           -1.31906867817055       -0.33861764536776       -2.33766661063406
C           -0.44454268828478        0.62184523070258       -1.86560946122139
C           -0.97300080298030        1.68767851531162       -1.14658811152075
C            1.90119802082061        1.96318828738362       -0.32323561850829
N            3.41591833208821       -0.21367867021883       -0.00525872346655
C            1.64723339536880       -2.18694561743249        0.32238312144028
C            0.67398088551018       -3.11289681458883        0.62858759522259
N           -0.67242750030679       -2.71790333724032        0.59812006583489
C           -1.71975601270021       -3.40435951084844        0.02286902204257
C           -1.70758573368556       -4.58676319625513       -0.70616608084995
C           -2.91224846461131       -5.05424971862882       -1.19907092986744
C           -4.10204892947219       -4.36264688048613       -0.98397015646679
C           -4.11674364212489       -3.17025281467575       -0.28126035647366
C           -2.92092374825258       -2.68093870218239        0.22144143271090
C           -2.56514315540008       -1.49517907068297        0.95420688742066
C           -3.29472067898587       -0.42667823388278        1.45228675720779
C           -2.62583127953613        0.57334416206473        2.13477929041656
C           -1.25125852884232        0.49898464556657        2.34550483746880
C           -0.50578604567677       -0.56522290042925        1.87450144908388
C           -1.16542214741840       -1.55603399205621        1.15654382978773
C            1.04041267837644       -4.41369453286458        1.00549832512958
H            2.67909115678729       -5.73851173907160        1.34468608049714
H            4.40744209618605       -4.08371391323652        0.86330005671261
H            5.83573551193634       -2.48622584926270        0.33060377200636
H            7.19489910784668       -0.44711956075033       -0.02120726924914
H            6.09446800715788        1.74300608724845       -0.36340248580128
H            4.87128320484346        3.50502912771100       -0.88163675123369
H            3.35785326793547        5.36107239455296       -1.35197078474885
H            0.91083536974229        5.05748943610867       -1.27407874728881
H           -0.14649657172144        5.16957578798970        0.90878653578513
H           -2.16355311990245        6.28853383451000        1.78283264886098
H           -4.39427144189947        5.35271024874463        1.39604334790361
H           -4.67842954265425        3.23985340828319        0.14230560328207
H           -4.29410176858823        0.92547403010553       -1.29950635451277
H           -3.34197486150503       -1.00874164878390       -2.51314800088877
H           -0.92866171490937       -1.18095105200731       -2.88968091733418
H            0.61366454155912        0.54865419999492       -2.06421274648972
H            1.50004046049408        1.02258961039726        0.01724044992851
H            1.36324505868215       -1.20396383929020       -0.01627650919600
H           -0.78699352276729       -5.11771376666548       -0.89340903085244
H           -2.92986831816618       -5.97295651405654       -1.76660803777148
H           -5.02341143964035       -4.76078455820407       -1.38260078240137
H           -5.03761593798074       -2.62767612159111       -0.13094811037554
H           -4.36337667318570       -0.37995250343685        1.31129286262905
H           -3.17308925552443        1.41963257133316        2.52146628497426
H           -0.75699824401783        1.28599838235417        2.89608247394495
H            0.55311962373236       -0.62708097447258        2.07323298815618
H            0.28786428991107       -5.13475096501278        1.28227175225302
