121
 energy: -174.102646494409 gnorm: 0.000117281314 xtb: 6.7.1 (edcfbbe)
C           12.66859288837480        0.61079233544215        1.22935993574053
C           12.03683807140364        0.16372989572542       -0.09240593825734
C           12.45777161239818        1.15768714975851       -1.18534585129222
C           12.57021319793081       -1.23699007751369       -0.42857076075582
C           10.51785527288653        0.11291567516960       -0.02914305892752
C            9.79719813379339       -0.27331155385692       -1.15817307178378
C            8.41749779768771       -0.33370308136764       -1.15069339044564
C            7.71432515244243       -0.00371074855695        0.00026806236125
N            6.28988623130491       -0.05890442878805        0.01441245200651
C            5.66482470646907       -1.21618979299469        0.44827641200587
C            6.42487552764955       -2.31300789929109        0.86533252220646
C            5.81501144150001       -3.47195594988546        1.30054925298578
C            4.43393872829814       -3.56592549190340        1.32971524388150
C            3.67717409514538       -2.48547887547799        0.91463404091440
C            4.27048178461380       -1.31309771584694        0.47304154809582
C            3.37274597317910       -0.17489806806808        0.03111628632195
C            4.17289604986410        1.02151565389651       -0.44766264135331
C            3.48501756218092        2.13426003042989       -0.90592733585083
C            4.14982034487405        3.26571435600214       -1.34182633563214
C            5.53391114014039        3.28610696071083       -1.31505184359425
C            6.23724466645344        2.18723846594613       -0.86548761140525
C            5.57050088765746        1.03801445792581       -0.43016360049498
C            2.53634979999624        0.26386304617247        1.21736610304984
C            3.18909189969361        0.67242206387888        2.37010517429345
C            2.48931943446849        1.08947721614244        3.48742244731926
C            1.10537501865285        1.09607168849110        3.45231621525114
C            0.43667262614961        0.69261379614860        2.31429018386389
C            1.13946500809785        0.27521156485662        1.18068599341222
N            0.45491970951379       -0.12915035414740        0.04504385054884
C           -0.96771166174578       -0.09717658494479        0.04743787898110
C           -1.62345360245966        1.08141073561143       -0.27777857325878
C           -3.01449815577796        1.10814322347631       -0.27072783321818
C           -3.76651628224763       -0.03430318131611        0.04198027251770
C           -3.06803535934828       -1.20893260056123        0.36108005791545
C           -1.67746445337300       -1.24458795077415        0.37302666865779
O           -3.71622310475923       -2.35023698478769        0.67722048106944
C           -5.07685824509296       -2.45191441977668        0.58591001575181
C           -5.57901631868497       -3.72541488909862        0.84685987830243
C           -6.92909986807316       -3.97904776396478        0.74896929448489
C           -7.81977429955366       -2.97332952146863        0.37146277484488
C           -9.31313718723623       -3.21456951520288        0.20048679775396
C           -9.71983937288223       -4.65330948213203        0.53329522985827
C           -9.69494601950723       -2.93485350955005       -1.26098173287261
C          -10.08927176862892       -2.27158460136928        1.13165109889997
C           -7.29812476259466       -1.71162743245777        0.13731416216380
C           -5.93956494330508       -1.39206964026780        0.25101545620834
B           -5.29460389748514       -0.00080715657139        0.03345552291216
C           -5.87620507092335        1.41688523625483       -0.19021065470684
C           -7.22605899592350        1.78976943321944       -0.09419678875419
C           -7.68691628928449        3.07102921400386       -0.32868679690906
C           -9.15229375060292        3.46490166227831       -0.21198953067333
C          -10.05334575570831        2.28681807863809        0.17012193190911
C           -9.29121933743352        4.54509400407326        0.87123655113162
C           -9.63335959016692        4.01606419745797       -1.56259571749979
C           -6.74407057623073        4.04199138679066       -0.68348832550800
C           -5.40708916004528        3.73646043667575       -0.76561296244684
C           -4.96472210488294        2.43812850696646       -0.50777378929674
O           -3.60953831446416        2.27832634497113       -0.58604612566609
C            1.11506026958330       -0.60471505808789       -1.07748109352211
C            0.38935302904122       -1.03076690974047       -2.19334407679389
C            1.03403011772868       -1.51263581350433       -3.31461506019375
C            2.41638452382289       -1.57928742092924       -3.35001469341491
C            3.13920558354453       -1.14748536179676       -2.25317597594895
C            2.51091885790678       -0.65802233034667       -1.11845759166888
C            8.41365326432874        0.38186384895265        1.13331919316040
C            9.79696660129697        0.43760189576941        1.11444568780133
H           12.34246805264452        1.61221367393874        1.50117808849694
H           12.42169763158440       -0.07738349144595        2.03468289541939
H           13.75150637135191        0.62833147878729        1.12406181449841
H           12.05942190340564        2.14709191489159       -0.96849312400920
H           13.54264266625473        1.22488770468805       -1.23054156614276
H           12.09564397662958        0.85116497312858       -2.16274897974953
H           13.65756094127669       -1.22408587892998       -0.46113525066508
H           12.20541969387336       -1.58078009586518       -1.39248639195764
H           12.25637502242170       -1.95178949949290        0.32980023201413
H           10.31529873381132       -0.53533573031022       -2.06787873098178
H            7.87749209518243       -0.63385303000377       -2.03715329078362
H            7.50237232795754       -2.25161739152006        0.84486205282881
H            6.42458411967355       -4.30541854849553        1.61807919983439
H            3.95166145771668       -4.46991021644398        1.66989547762069
H            2.59791629987060       -2.54534323572616        0.92952405985873
H            2.40474701310214        2.10689429516779       -0.91871023420147
H            3.59395811407850        4.12116873379610       -1.69488957784774
H            6.07234228315313        4.16242937615703       -1.64566201116003
H            7.31617588265234        2.21433626073633       -0.84814263236591
H            4.26949972633089        0.65936370057991        2.38585262424298
H            3.01770873100311        1.40396705897987        4.37462660549420
H            0.53935360552382        1.41490264469607        4.31542647055857
H           -0.64263561841896        0.69730515821122        2.29874125186012
H           -1.06878809113760        1.97232850870853       -0.52600608976477
H           -1.16307371505595       -2.15873537863452        0.62409373616775
H           -4.88461256155658       -4.50776144777478        1.11519418962026
H           -7.27645653810940       -4.97726487151128        0.95758071481800
H           -9.22282092572878       -5.36413824743944       -0.12300507112504
H          -10.79352401638495       -4.76633759446309        0.39615452553269
H           -9.48631730108971       -4.89735347093861        1.56725381773224
H           -9.46845216934340       -1.91001966639245       -1.54144669555422
H          -10.75969912703613       -3.10297868559382       -1.40872503339561
H           -9.14513460441910       -3.59763743863044       -1.92659719713672
H           -9.79153089111121       -2.43421914298911        2.16572452033092
H           -9.90731492008505       -1.23033672978028        0.88369971875640
H          -11.15771749371015       -2.45850917349038        1.04692486812452
H           -7.96428529450094       -0.92342721502702       -0.16988244293092
H           -7.92122683514713        1.02388864597641        0.19834875379741
H          -10.01257417219114        1.50499524611779       -0.58456935194142
H          -11.08396887390587        2.62861821183346        0.24222444065747
H           -9.76979408118900        1.87362946136378        1.13537942663217
H           -8.93389500739650        4.16728092600309        1.82738830693263
H           -8.71883146224602        5.43428389410530        0.62149230578476
H          -10.33489743310328        4.83214976403378        0.98153404817858
H           -9.08023312517336        4.90608519820031       -1.84952617329398
H          -10.68825195614317        4.27636155909642       -1.50536486495387
H           -9.50401045291567        3.26802252128224       -2.34248583116379
H           -7.05393632042873        5.05569338002433       -0.88544509937332
H           -4.67529669891490        4.48930497344636       -1.01805509994704
H           -0.68873119528260       -0.98046431023976       -2.17743230097476
H            0.45033697413811       -1.83670933172318       -4.16389476973335
H            2.92578125431007       -1.95809763584611       -4.22309172088262
H            4.21899010339153       -1.18698127225685       -2.27053854167046
H            7.87155432909722        0.63855471516184        2.03209036343370
H           10.30307480951485        0.74211635630329        2.01549864804310
