121
 energy: -174.009671895780 gnorm: 0.000103440876 xtb: 6.7.1 (edcfbbe)
C           12.34696172664781        1.43530347555127        0.36736894850428
C           11.86372739482581        0.02337030599009        0.00317928900613
C           12.49239265780736       -0.36686656896021       -1.33789230415781
C           12.33909270233769       -0.97980668456217        1.06502832641135
C           10.34358320790703        0.01711764662737       -0.03772411238853
C            9.61921165335663       -0.29957365502245       -1.18161178617351
C            8.23473279202393       -0.29641753454320       -1.18093602687296
C            7.53984355014182        0.02547129568996       -0.02545388329333
N            6.11287337201006        0.02634185466408       -0.01922901298592
C            5.44391750193305       -1.15002657285413        0.26166764153729
C            6.16246661328337       -2.31973786931068        0.53837397766587
C            5.50765154563195       -3.49937521606947        0.82071861781813
C            4.12167200449772       -3.54331363178320        0.83544435174934
C            3.40551690500607       -2.39178866608885        0.56537711038664
C            4.04470083916066       -1.19533686084278        0.27903493812702
C            3.19521217598242        0.02743749612567       -0.00483096388287
C            4.04280400281865        1.25025367412711       -0.29420258098509
C            3.40188831313808        2.44776372554338       -0.57203892231460
C            4.11638561857406        3.59907448761904       -0.84743893460327
C            5.50240188696391        3.55375052197722       -0.84756050110436
C            6.15894698230364        2.37310470822901       -0.57352700440482
C            5.44210631567332        1.20366189920194       -0.29133896574339
C            2.35041918766642        0.31255117034072        1.21966221618584
C            2.99227953212212        0.59327391553220        2.41607179286006
C            2.27906078877695        0.86020312626528        3.56998362216094
C            0.89224319993115        0.84497723270546        3.53015446478705
C            0.23462162271314        0.56840374071669        2.35140200119080
C            0.95006293534950        0.29941171943262        1.17710326503086
N            0.27551371514787        0.02729391696862        0.00344221107417
C           -1.14970478860202        0.02727414649214        0.00745409160652
C           -1.84879794013534        1.21177526468891       -0.24369154375356
C           -3.23495205582676        1.19789226272311       -0.23333915366748
C           -3.97709471234253        0.02732847298377        0.01496005069949
C           -3.23368042780386       -1.14322494261251        0.25948471106458
C           -1.84748306823813       -1.15717723459188        0.26243957676838
O           -3.85716440408180       -2.32968994391008        0.51517270423330
C           -5.21960485552132       -2.45355665100722        0.44098796019524
C           -5.68368173752800       -3.74899848316351        0.63766437128799
C           -7.03536354679183       -4.03037201050775        0.55124857388223
C           -7.95125043992692       -3.01927102723306        0.24523941814584
C           -9.42645200126053       -3.37002479381471        0.12451651920839
C           -9.60083629778273       -4.41899586124022       -0.98490829893383
C          -10.30179086249519       -2.16243386456852       -0.22340515461673
C           -9.91596637759104       -3.94470054938789        1.46267348574069
C           -7.46383607445592       -1.73279820429893        0.06719904590445
C           -6.10788275489520       -1.38154281399956        0.17966146181486
B           -5.49582882677669        0.02723807639126        0.01825409092536
C           -6.10884136184488        1.43581894902841       -0.14114989567568
C           -7.46446699068457        1.78683467725654       -0.02382212923634
C           -7.95288094478479        3.07302551404033       -0.20111495680774
C           -9.42786153505049        3.42331519698040       -0.07622408366592
C           -9.92250160434321        3.99046333043401       -1.41570855666373
C          -10.30085999369365        2.21688820209156        0.28149974407056
C           -9.59932752083947        4.47790974715487        1.02830220846373
C           -7.03843195141220        4.08410326178912       -0.51151560268322
C           -5.68696809775814        3.80308699148105       -0.60237197361769
C           -5.22185353195352        2.50790466657470       -0.40650425698551
O           -3.85966890389615        2.38433614116520       -0.48595889907185
C            0.94343161460273       -0.24492512109888       -1.17399303482268
C            0.22139176165773       -0.51417445978212       -2.34417667219562
C            0.87237289656138       -0.79128680857350       -3.52649359279587
C            2.25894330114257       -0.80673050082193       -3.57409812254207
C            2.97865655431214       -0.53931240892135       -2.42433698814577
C            2.34351227614245       -0.25803912833213       -1.22448334572847
C            8.24453329669672        0.34617455737263        1.12703954422509
C            9.62551054735939        0.34059424803931        1.11263172575619
H           11.99695164293029        2.15587007456804       -0.36938478114688
H           11.98274137439269        1.74153651260617        1.34414343488893
H           13.43427394619036        1.46338195111165        0.38619814676066
H           12.19959780204036       -1.37254469828602       -1.63115080507610
H           12.21098900857874        0.33192536451349       -2.12245219316953
H           13.57654825011937       -0.34775609020374       -1.24712450775233
H           13.42628432549316       -1.00653460944638        1.09139930372118
H           11.97581609899047       -1.97852618652486        0.83024159325437
H           11.98294610914905       -0.71108778066728        2.05562701456256
H           10.12365201041182       -0.55567881185031       -2.09823094022533
H            7.69016047667220       -0.54593035164120       -2.07987930648864
H            7.24092278525834       -2.29456647410817        0.53033766304195
H            6.08160286896790       -4.38933620590847        1.03102931998838
H            3.60457483875207       -4.46446204417008        1.05570356129893
H            2.32551046136155       -2.41444347240986        0.57584566376583
H            2.32185644756668        2.47152215759174       -0.57144626955625
H            3.59789667555310        4.52103351332819       -1.06094959449733
H            6.07498196973092        4.44350595990692       -1.06240946108268
H            7.23742113599135        2.34681122753101       -0.57634175738150
H            4.07212704635039        0.60148120277159        2.43718645666169
H            2.79703486347625        1.07713253154262        4.49134738777194
H            0.31972707190198        1.04974900418791        4.42236581899046
H           -0.84381969926982        0.55652813912477        2.32393233569061
H           -1.32089914654366        2.13079890523177       -0.44730579639511
H           -1.31856796491911       -2.07624436815320        0.46322255538766
H           -4.96684530824449       -4.52936634993333        0.84939693756121
H           -7.36253201483366       -5.04599231987076        0.71053050181555
H           -9.05002604503787       -5.32842576376793       -0.76111103417220
H           -9.23822030215193       -4.02575303849895       -1.93288390842339
H          -10.65279683684936       -4.67500628398827       -1.09543914498689
H          -11.34043768416960       -2.47832496719288       -0.30235561975708
H          -10.00799114786160       -1.72971404593632       -1.17706617019593
H          -10.24021476125371       -1.40014158562101        0.54945010537554
H           -9.77212342802195       -3.21608658852511        2.25832928743826
H          -10.97525550810547       -4.18651823642740        1.40134027313408
H           -9.37442260178930       -4.84876074122905        1.72744572926168
H           -8.14760273434436       -0.94188637736836       -0.18318704493725
H           -8.14705857114562        0.99597058810577        0.22991567833197
H          -10.98140921171385        4.23320204859962       -1.35156494810942
H           -9.78221831653955        3.25711158040150       -2.20762781835044
H           -9.38141410802626        4.89260158723509       -1.68789187085842
H          -10.24310377394212        1.45112285181662       -0.48818624032435
H          -10.00182667158872        1.78861512497258        1.23554556163933
H          -11.33920818821816        2.53272852619972        0.36443631397714
H           -9.23271187785205        4.09003337649395        1.97692963195072
H          -10.65121065716894        4.73305250502101        1.14146528368396
H           -9.05073672839157        5.38698678739915        0.79782627343998
H           -7.36653360419212        5.09939746382050       -0.67094653225648
H           -4.97112127209570        4.58345158587414       -0.81743049334995
H           -0.85687852292826       -0.50219172691919       -2.31067579561417
H            0.29484553058860       -0.99635084214284       -4.41540175875624
H            2.77171886754364       -1.02421369314271       -4.49823965850911
H            4.05837006944538       -0.54762070416078       -2.45145210237685
H            7.70743353119017        0.59875656068695        2.02952330321150
H           10.14679330527767        0.59401153319380        2.02259516265453
