121
 energy: -174.009448210591 gnorm: 0.000042185733 xtb: 6.7.1 (edcfbbe)
C           12.29293835955939        1.64018175065728        0.22570518662963
C           11.85783050084670        0.16912205303076        0.14593380057958
C           12.53521497610849       -0.46453773775735       -1.07295076108667
C           12.32787665896112       -0.58226605609958        1.40060767704833
C           10.34028797893956        0.10640732556504        0.07204895380734
C            9.65837919427051       -0.46829094191249       -0.99486952796549
C            8.27498217301023       -0.50720576017490       -1.02824570990801
C            7.53784289240202        0.03098456878493        0.01535959211661
N            6.11208631967103       -0.00808227504413       -0.01373421485887
C            5.46431363853411       -1.15529806825506        0.40477442762839
C            6.20189700181913       -2.25368364463073        0.86368441265418
C            5.56786023572413       -3.40685576370979        1.27396770737228
C            4.18432400423854       -3.49433784754563        1.23959244221263
C            3.44877968377139       -2.40890495925620        0.80070964660824
C            4.06693380846252       -1.23965341882279        0.38489998276913
C            3.19605058017039       -0.08198063425115       -0.05952491342147
C            4.02198655971466        1.10079374850922       -0.52596597477453
C            3.36091899556286        2.22141617913800       -1.00494227936923
C            4.05554253201636        3.33442110838065       -1.44136776946599
C            5.44171815729521        3.32701074378829       -1.40339815338103
C            6.11808035574268        2.22190050909914       -0.93296513742514
C            5.42136218914732        1.09355454406726       -0.48293625798403
C            2.36366694028234        0.35819253639026        1.12749101430926
C            3.01835116121699        0.77238609566986        2.27736650641401
C            2.31792661425164        1.17393344376077        3.39956066414618
C            0.93088717084852        1.15328581230575        3.37698740577265
C            0.26080268760522        0.74596713312682        2.24412359216133
C            0.96291264325465        0.35016656019373        1.09773092329454
N            0.27600868248136       -0.05149679697769       -0.03163687554321
C           -1.14777772652337       -0.02893012142568       -0.02016942856155
C           -1.82913642417549        1.17804083484295       -0.20669482105819
C           -3.21500812641937        1.18708736299335       -0.18527431562739
C           -3.97586717929918        0.01797439112508        0.00780287130548
C           -3.25063166454443       -1.17580921643303        0.18684024453311
C           -1.86509881998756       -1.21278096830424        0.18071331787218
O           -3.89240317967307       -2.36323262688858        0.38654490494164
C           -5.25755722040656       -2.45979834816233        0.32106877232981
C           -5.74238675118476       -3.75533066644282        0.45857624446919
C           -7.09979313708587       -4.00873951987820        0.37546611365003
C           -8.00089577595841       -2.96822404739713        0.13063222222713
C           -9.48419180090861       -3.28579295670385        0.01674739665407
C           -9.69571006991250       -4.28413794320644       -1.13208907935464
C          -10.34046527990202       -2.04820076303406       -0.26735288292121
C           -9.96502005201518       -3.90624677419706        1.33758725813151
C           -7.49240028929565       -1.68335518469447        0.00858283768912
C           -6.12927533476318       -1.36136080706989        0.12143455040938
B           -5.49419387673674        0.04317316777156        0.02202459251506
C           -6.08395322375230        1.46837153136682       -0.06250485631312
C           -7.43302237876217        1.83541761287711        0.07834693936450
C           -7.90013759061583        3.13731611539058       -0.02772872903031
C           -9.36936740546943        3.50440864469252        0.11602582506630
C           -9.85274207317506        4.15039091707962       -1.19161615353624
C          -10.26222139837665        2.29477433197455        0.40769171955700
C           -9.52565157999973        4.50131655480565        1.27492453804524
C           -6.96934543079285        4.14843419461928       -0.28421934266346
C           -5.62316124605198        3.84992291191021       -0.39517799787814
C           -5.17999447707746        2.53782595695136       -0.27527783182108
O           -3.82056203979120        2.39567397575457       -0.37039081914881
C            0.93304527835318       -0.48867366938172       -1.16559156378987
C            0.20207658671733       -0.88293373745423       -2.29437617379834
C            0.84268301998395       -1.33309827459474       -3.42812797986173
C            2.22790313838216       -1.40012691641412       -3.46907155960094
C            2.95712886103473       -0.99638534870355       -2.36609725133328
C            2.33244147812322       -0.53771497262817       -1.21639845988197
C            8.19979453385299        0.60932609403585        1.08995767986819
C            9.58033646859101        0.64356785027286        1.10999142722791
H           11.94100782937432        2.18549854487778       -0.64796905855821
H           11.89700910498092        2.12544083527022        1.11346702476967
H           13.37827007707060        1.70631024218454        0.25840960323755
H           12.27872801090403       -1.51782047127084       -1.16184378060107
H           12.25698169522838        0.05123095502391       -1.98928115053807
H           13.61540067264606       -0.39193403112751       -0.96371251424703
H           13.41383542806419       -0.56259315975251        1.46136055084390
H           12.00426627184087       -1.62067348448646        1.36205848494558
H           11.92939030023712       -0.13409289721646        2.30657493949363
H           10.19633889412150       -0.89712989487954       -1.82363548788874
H            7.76357152053700       -0.95815820340869       -1.86613461340866
H            7.27846027050052       -2.19355741508034        0.89753571768641
H            6.15648114591026       -4.24183855120841        1.62321053114141
H            3.68392921937408       -4.39650452830867        1.55611340106505
H            2.37003339803779       -2.46263019761177        0.77773151670098
H            2.28108248712494        2.21528301168748       -1.03485374338433
H            3.52156452092745        4.19725040243695       -1.80854072631515
H            5.99910751602808        4.18662285412676       -1.74410524893070
H            7.19666813920681        2.22297779513891       -0.91261377828325
H            4.09820162415667        0.77501576424754        2.28866724114342
H            2.84587517898359        1.49432580416186        4.28435894491234
H            0.36761310287169        1.45428424230911        4.24754134659244
H           -0.81766897316740        0.72531478971043        2.23416628522940
H           -1.28760244344003        2.09774144860307       -0.36675878097201
H           -1.35070786112685       -2.14937284680841        0.33245586671474
H           -5.03732464900260       -4.55745417908275        0.62357282631287
H           -7.44314886408893       -5.02507185140077        0.48984436439428
H           -9.16119836682353       -5.21315593749233       -0.95398830129550
H           -9.33811376999722       -3.85950839679843       -2.06831127376865
H          -10.75421235628434       -4.51395397716321       -1.23761179416309
H          -11.38583761405936       -2.34103926665733       -0.34636170215145
H          -10.04997877370439       -1.58005665806680       -1.20517002070361
H          -10.25510029995536       -1.32142692697446        0.53682259634889
H           -9.43878477636511       -4.83174207365410        1.55480741462596
H           -9.79282848096170       -3.21513731357826        2.16060821229712
H          -11.03015191412746       -4.12296339368127        1.28390744599877
H           -8.16479528813632       -0.86968302102781       -0.19512104655862
H           -8.12840169059682        1.04379853428600        0.29157385484127
H           -9.29847551622863        5.05833933076166       -1.41313403094600
H          -10.90838613474260        4.40390863095006       -1.11644480202579
H           -9.72026665916577        3.45917815901071       -2.02183586224902
H          -10.21566392841558        1.57093152890761       -0.40229027355970
H           -9.97164200802111        1.81075611053733        1.33736665075550
H          -11.29548338245037        2.62237078300605        0.50689929799344
H           -9.16737969746893        4.05806076786237        2.20223546398447
H          -10.57342151880379        4.76749639129015        1.40023303607362
H           -8.96180952998899        5.41216037774123        1.09343217775894
H           -7.28039413036890        5.17648083133483       -0.38562483777537
H           -4.89451654237973        4.62851222418652       -0.56993158103769
H           -0.87497476974065       -0.82806471212594       -2.26970567621711
H            0.25762393128633       -1.63255121272619       -4.28475029859824
H            2.73220343850027       -1.75676937640245       -4.35380642147171
H            4.03628865299577       -1.03336774185444       -2.39128732241547
H            7.63017264444983        1.03215909622428        1.90443126846098
H           10.06755089383699        1.09959027632919        1.95773366204850
