121
 energy: -174.102808790752 gnorm: 0.000066615371 xtb: 6.7.1 (edcfbbe)
C           12.25752707068975        1.72089983511055        0.30830903856752
C           11.84252218083277        0.24405780989666        0.22939091065152
C           12.54983725216676       -0.38741957115974       -0.97356546247228
C           12.30055716736136       -0.49424496102848        1.49615872358539
C           10.32695289882050        0.16092495499342        0.12895560949788
C            9.67125956207403       -0.42513722099638       -0.94797179113131
C            8.28920237173123       -0.48270665234468       -1.00440686889784
C            7.52493713666182        0.04638633281983        0.02433514266031
N            6.10152712185296       -0.01264104640109       -0.02776283664128
C            5.45860495577181       -1.15805822428546        0.41200681361525
C            6.19927626822571       -2.23503556250342        0.90809995696871
C            5.57186696062667       -3.38442119393518        1.34373542641845
C            4.19204084358961       -3.48774959169632        1.29593122929157
C            3.45376560284727       -2.42177898494808        0.81532926962238
C            4.06475784539822       -1.25809624117535        0.37494551396171
C            3.18598911577219       -0.12217599048590       -0.11075031676463
C            4.00658479911573        1.04675470993706       -0.62067800097480
C            3.33972281795129        2.13702581633379       -1.15739956442436
C            4.02429753281980        3.24197381294467       -1.62940278138868
C            5.40717282939452        3.25653261321911       -1.56356305346974
C            6.08975365537977        2.18010362533595       -1.03463736517966
C            5.40274619537306        1.06127109447860       -0.55402581058872
C            2.35389353203494        0.36038749602145        1.06164404816120
C            3.01292560387826        0.82723817428290        2.18863711985233
C            2.31992152198954        1.26368638312888        3.30243242868919
C            0.93625718687282        1.22089668406592        3.29348621689648
C            0.26170657119356        0.76205423429845        2.18027616954347
C            0.95685448128569        0.33895669829279        1.04380423849704
N            0.26587532462829       -0.11251567745418       -0.07134750668492
C           -1.15538592016413       -0.08172123943313       -0.05956867103124
C           -1.81241163838944        1.12431971304102       -0.26068710157991
C           -3.20257273203097        1.15461336016193       -0.22878348892882
C           -3.95534699970718       -0.01121590059258       -0.02171044154996
C           -3.25681487885361       -1.21392491782190        0.16413992992646
C           -1.86631237657116       -1.25401889812396        0.15786594568585
O           -3.90601189274076       -2.38023843938885        0.36825638909764
C           -5.26837867638352       -2.46583272867551        0.29271782546636
C           -5.77184538128619       -3.76069132219342        0.42583894197782
C           -7.12331690177184       -3.99145117084116        0.33495816676796
C           -8.02029773377467       -2.94566233813598        0.09189755721047
C           -9.50563835269759       -3.25280803106209       -0.03292076204725
C           -9.71805682730694       -4.23180926368753       -1.19725459033931
C          -10.34777419682957       -2.00212737293965       -0.30155594388726
C           -9.99557775056810       -3.88745665640643        1.27729870482297
C           -7.49904946987778       -1.67103207903501       -0.02165270583722
C           -6.13143380903096       -1.37544357836842        0.09061713800277
B           -5.48293515542517        0.02833336736046        0.00316471548395
C           -6.05999869784063        1.46458622970154       -0.05652143400158
C           -7.40441581976085        1.83113266704845        0.11207291275151
C           -7.86054380495522        3.13292694905171        0.03107604914426
C           -9.32055760355506        3.51807330426956        0.22168702785979
C           -9.82844297912458        4.20347537692240       -1.05568194983565
C          -10.21879810144918        2.31030347268296        0.50445367428587
C           -9.43066404363749        4.48522891811281        1.40988926047216
C           -6.91911626535772        4.13237019548335       -0.23743950109386
C           -5.58697367408250        3.83090210858402       -0.38644183893066
C           -5.14884251668311        2.50982622824651       -0.28408998270818
O           -3.79679640722349        2.35313638051065       -0.41220965541169
C            0.92386157052426       -0.58901385598244       -1.19589294126572
C            0.19689384263135       -1.02287762901308       -2.30806987127364
C            0.83960910594333       -1.50975085428875       -3.42829225793274
C            2.22211874052716       -1.57047299611462       -3.46894419465678
C            2.94670478077771       -1.12200240122209       -2.38019711773649
C            2.31998061280465       -0.62745839082335       -1.24657062395080
C            8.16231090811888        0.63583032534147        1.10772208527913
C            9.54172899663451        0.69007670374751        1.15182760007724
H           11.91551952449436        2.25587421577185       -0.57565326686865
H           11.83653105374508        2.20615507422676        1.18450171500753
H           13.34109699412576        1.80148032748573        0.36246765108747
H           12.30714433465472       -1.44408403334911       -1.06114973368746
H           12.28085033699237        0.11975036326587       -1.89741221555942
H           13.62693523537797       -0.30064048812421       -0.84541103716837
H           13.38504674124601       -0.46097899248640        1.57562561075927
H           11.98942835848419       -1.53650574936681        1.45808398859358
H           11.88035663054231       -0.04586124170173        2.39216587964939
H           10.22896988508022       -0.84867776911089       -1.76667242790937
H            7.79788004182135       -0.94226343924923       -1.85009097224142
H            7.27553283331974       -2.16476513662218        0.95161667746374
H            6.16661438476483       -4.20268736279808        1.72292801961408
H            3.69605468571424       -4.38539860473425        1.63318359908374
H            2.37535406757839       -2.48583949417664        0.77911148072419
H            2.26022772688630        2.11223709077669       -1.20497466284345
H            3.48457013736409        4.08018439953225       -2.04352811676351
H            5.96095812788115        4.10971790710229       -1.92754031023642
H            7.16811703145838        2.20035447115501       -0.99166012832413
H            4.09325450584326        0.84413413353702        2.18702824374893
H            2.85296257095030        1.62535510435157        4.16860387887305
H            0.37484504018221        1.54399890982228        4.15801745651208
H           -0.81691049673261        0.72659870455865        2.18864045994445
H           -1.25771831282117        2.03459732745950       -0.42480729372627
H           -1.35327866036795       -2.19029738331431        0.31119352722529
H           -5.07603622574553       -4.56967014022481        0.59201729696159
H           -7.48079087412393       -5.00403559713874        0.44145355070866
H           -9.18938054386425       -5.16668538252415       -1.03272800142010
H           -9.35738759284654       -3.79550243897062       -2.12685569581090
H          -10.77700953475184       -4.45546944413104       -1.30903690972824
H          -11.39533010769552       -2.28388503075140       -0.38773380089038
H          -10.05190614492293       -1.52416776625034       -1.23258020064817
H          -10.25923345677784       -1.28906949758921        0.51435439265131
H           -9.48444493833413       -4.82435959508949        1.48090125781820
H           -9.81655291740750       -3.21262480587781        2.11213265815053
H          -11.06322459039383       -4.08877968802492        1.21876727704449
H           -8.15877875381376       -0.84736404220924       -0.22574656583173
H           -8.09890427969487        1.04159923130955        0.33480109408069
H           -9.27237899872119        5.11251761369438       -1.26772373128119
H          -10.87876486677471        4.46559536658824       -0.94661186834989
H           -9.72608712112721        3.53460944479149       -1.90808079167740
H          -10.19957685313536        1.60702064650424       -0.32442171429208
H           -9.91478719800629        1.80195937401539        1.41657116882940
H          -11.24556115251950        2.64644718107233        0.63459955576660
H           -9.05726676823988        4.01262529903057        2.31641431550224
H          -10.47012168557739        4.76443146154176        1.56944076751612
H           -8.85796246588289        5.39258818941460        1.23866002810358
H           -7.22575454967379        5.16380603971718       -0.31873001790490
H           -4.85562533555620        4.60315370273331       -0.57325650505535
H           -0.88108846609481       -0.97353149652110       -2.29173375056212
H            0.25396934841862       -1.84097995094969       -4.27345277234282
H            2.72980859735623       -1.95419917700607       -4.34083921051395
H            4.02691329601019       -1.14976241726968       -2.40302559204036
H            7.57258064811299        1.05246802845821        1.91142259518243
H           10.00765903582220        1.15547690068352        2.00681935308233
