61
 energy: -96.940849295088 gnorm: 0.000054544108 xtb: 6.7.1 (edcfbbe)
C           -6.30666212316190       -0.19572901103117        1.26621978332800
C           -5.33643374541279        0.02395827166012        0.08659415410690
C           -6.13016960263962        0.36762652951468       -1.19177499717742
C           -4.56503041279452       -1.25019175028230       -0.15940045641071
C           -5.24445402683928       -2.41791726252857       -0.47997657791885
C           -4.57866330271873       -3.59819662209487       -0.75661342952948
C           -3.18904641110837       -3.62268953989422       -0.75070312218390
C           -2.48706153995494       -2.48290087105489       -0.43895239569445
C           -3.15816471655979       -1.29243921131507       -0.10273079601200
N           -2.42717325344800       -0.17739892773631        0.23923557293019
C           -1.02254115231999       -0.29499747967843        0.35577953509100
C           -0.50032244299630       -1.05979635822012        1.41219103771021
C            0.85152951928418       -1.16087626619643        1.59870328496961
C            1.74441256385194       -0.52382932503094        0.70598238597945
C            1.24202039978007        0.22151201674782       -0.38088024193554
C            2.12465905413317        0.82651382461818       -1.29713333466854
C            1.61630912001008        1.54249138086474       -2.39698673202011
C            0.25799834066770        1.64323687477402       -2.58755517253331
C           -0.63193631621359        1.05370985756039       -1.69493609750346
C           -0.16355369793940        0.35059737346747       -0.57582998210188
C            3.55625482955292        0.70767676438707       -1.12189596228964
O            4.38354779843922        1.20809340877785       -1.88865020667711
N            3.98243194856345       -0.01956705195639       -0.01764035032423
C            5.39595196834491       -0.13460074148872        0.17686142369240
C            6.02505956819955       -1.35133080898918       -0.03577515187599
C            7.39072158503510       -1.45849102789643        0.15949685202347
C            8.12613739104439       -0.35410248544697        0.55532719488922
C            7.49370898397844        0.86019775368504        0.76218047196960
C            6.12702205347879        0.97274918161290        0.57815552821299
C            3.16636740116116       -0.65044084818043        0.91574944893234
O            3.66848696643114       -1.26686538401570        1.86146351369623
C           -3.02968825008372        1.03246480812794        0.51029233902379
C           -2.24149617895870        2.12254601015705        0.92124338013324
C           -2.81148489281837        3.34619165624870        1.17785538002985
C           -4.18595939817292        3.50946224663436        1.04762481948060
C           -4.97255448862167        2.43058069939741        0.68970386037356
C           -4.42688391451453        1.18109294269296        0.42322049272168
H           -6.89201498942743        0.69861393492216        1.45401705006499
H           -5.74823542960136       -0.43880091880973        2.16788260476561
H           -6.98951389403563       -1.01184691846384        1.05272321783041
H           -5.44692317063294        0.53177145198188       -2.02250365611420
H           -6.80333193707196       -0.44217507025507       -1.45441658633065
H           -6.71848895412161        1.26793403660690       -1.04564200793475
H           -6.32184256932585       -2.41186168855001       -0.51969616377413
H           -5.13699719183784       -4.48950515950317       -0.99707055870253
H           -2.65695163952269       -4.52753198025754       -1.00001975264720
H           -1.40939492759221       -2.49352626950603       -0.46199347330824
H           -1.18612780588972       -1.52768888243413        2.10316915591038
H            1.27264689108866       -1.71537078196551        2.42239560076642
H            2.32359675508057        1.99711899148000       -3.07368619305768
H           -0.12756986806666        2.19114167163532       -3.43460014516649
H           -1.69309740357572        1.14556449312135       -1.86839316252491
H            5.44088766509784       -2.20613369068364       -0.34473573115653
H            7.87985697309439       -2.40771421776911       -0.00259831358611
H            9.19240228582227       -0.43961878955228        0.70314096364259
H            8.06352422904066        1.72431744931064        1.07055151546163
H            5.62246879377710        1.91517391409432        0.73572960924254
H           -1.17845444525166        1.99208294718794        1.04048465960984
H           -2.18906930768608        4.17171691830685        1.48621567282654
H           -4.64000859784751        4.46868026314125        1.24190118446041
H           -6.03934179808254        2.57003241450885        0.62000800702947
