  61
        -96.89294448
 C         -6.3388019518        0.2200226120        1.1922457241
 C         -5.3308777708       -0.0151738865        0.0504944622
 C         -6.0726222003       -0.3917049672       -1.2471419465
 C         -4.4211876400       -1.1567388701        0.4445262103
 C         -4.9663710757       -2.4012585408        0.7334902792
 C         -4.1855270724       -3.4623554892        1.1510939153
 C         -2.8206606490       -3.2799896347        1.3243480166
 C         -2.2526880932       -2.0599433149        1.0433679510
 C         -3.0323847243       -0.9949093158        0.5647595126
 N         -2.4245266500        0.2084882798        0.2633236754
 C         -1.0240850024        0.3225362833        0.3694966261
 C         -0.4895404910        1.1741746098        1.3588794650
 C          0.8596437082        1.2885854801        1.5267914802
 C          1.7458165032        0.5700047467        0.6844802404
 C          1.2346741364       -0.2633339196       -0.3290804805
 C          2.1127745941       -0.9424937560       -1.1938244397
 C          1.6002652980       -1.7537208977       -2.2260873696
 C          0.2440434236       -1.8611273814       -2.4069039032
 C         -0.6446421527       -1.1944912670       -1.5616967451
 C         -0.1717675631       -0.4042163922       -0.5070024959
 C          3.5514544615       -0.8169414842       -1.0314258037
 O          4.3598249979       -1.4212375435       -1.7298752431
 N          3.9850797660        0.0117718427       -0.0049557672
 C          5.3974807670        0.1522335988        0.1619784870
 C          6.0022161018       -0.3054821113        1.3224942924
 C          7.3687174721       -0.1630886989        1.4827572138
 C          8.1293108225        0.4246998312        0.4862807076
 C          7.5212552538        0.8754789133       -0.6728857895
 C          6.1539026147        0.7457639782       -0.8369025182
 C          3.1734233105        0.7245544098        0.8713364699
 O          3.6648420747        1.4546034023        1.7291665609
 C         -3.1584114348        1.3129222158       -0.1165408988
 C         -2.4909926933        2.4964453989       -0.4727005129
 C         -3.1933967318        3.6255041652       -0.8243693908
 C         -4.5798616187        3.5937395182       -0.8555739633
 C         -5.2408895566        2.4146974718       -0.5632092096
 C         -4.5598592626        1.2613740020       -0.1988046008
 H         -5.8101392724        0.4756382289        2.1083056102
 H         -6.9314234139       -0.6712117243        1.3753796205
 H         -7.0162511322        1.0329467782        0.9483353331
 H         -6.7676665113        0.3908339620       -1.5367756813
 H         -5.3585475970       -0.5330995546       -2.0559434030
 H         -6.6318556782       -1.3134252295       -1.1179116062
 H         -6.0304513319       -2.5507446612        0.6338064612
 H         -4.6399459250       -4.4180767680        1.3598201276
 H         -2.2024824259       -4.0875088347        1.6841281501
 H         -1.1965132287       -1.9136674961        1.1950680886
 H         -1.1750936155        1.6940167553        2.0124145625
 H          1.2896988317        1.9069035573        2.2974641573
 H          2.3033218618       -2.2709556584       -2.8586239225
 H         -0.1499866101       -2.4754133853       -3.2026881287
 H         -1.7067891482       -1.3003011689       -1.7230230580
 H          5.4008083415       -0.7622426638        2.0935085797
 H          7.8400463324       -0.5163554039        2.3878129511
 H          9.1964267691        0.5312916525        0.6131913017
 H          8.1116820863        1.3340439747       -1.4521712172
 H          5.6705616112        1.0953582275       -1.7362928203
 H         -1.4138183646        2.5126144721       -0.4817120544
 H         -2.6609861165        4.5263834401       -1.0865633974
 H         -5.1407786818        4.4736035930       -1.1287501816
 H         -6.3179339206        2.3975532796       -0.6270510133
