61
 energy: -97.000315964442 gnorm: 0.000068205744 xtb: 6.7.1 (edcfbbe)
C           -5.80395767555301       -0.25767010566279        1.24547408893641
C           -4.81607375628435        0.02100143120069        0.09672434310295
C           -5.58278456772382        0.25432356256589       -1.21871093150177
C           -3.91479956680150       -1.18819178449204       -0.06448144177005
C           -4.47985795617056       -2.42663810103353       -0.34365869829835
C           -3.71815875703001       -3.57463857511117       -0.45402530241417
C           -2.35112622688707       -3.49990780368292       -0.25416468181678
C           -1.76427853217843       -2.28291515713158        0.02192433704493
C           -2.52730994469285       -1.11315055604473        0.08886018455584
N           -1.90097258386021        0.10465905369108        0.34500797014161
C           -0.49933639864908        0.13250883445160        0.50438575462838
C            0.04776869757232        0.33636078327107        1.75595372062892
C            1.42697893899124        0.34221805933920        1.94086214413119
C            2.28023134925125        0.14817341930069        0.86983999706258
C            1.75262982040934       -0.04119783082477       -0.42507462950257
C            2.60990798457620       -0.22316840843501       -1.53138246816263
C            2.08499188285809       -0.38362795746521       -2.79897556520051
C            0.70367928906294       -0.35570902578573       -2.99898853089120
C           -0.14922437299257       -0.19212359309262       -1.93703481023385
C            0.34810659696122       -0.04433523337747       -0.62603874562723
C            4.06636116371271       -0.24127016496769       -1.34026958068667
O            4.85974515087664       -0.41216092669492       -2.24848441276550
N            4.51474381616445       -0.05249251339934       -0.04188220665325
C            5.93936286432610       -0.05485694447682        0.15708225523458
C            6.55473638900736       -1.17606597750974        0.68918006283906
C            7.92496609082714       -1.17119038012055        0.88443481428476
C            8.67185506367810       -0.05544856117544        0.54561695442135
C            8.04961201620293        1.06013655465931        0.01096551886702
C            6.67929189782700        1.06581374623128       -0.18324335700662
C            3.73024654668561        0.14837380622428        1.08563592244946
O            4.24854615320725        0.31816249973214        2.17508029465358
C           -2.63102711487865        1.27759801177005        0.51871196570056
C           -1.96079864182799        2.48486107984619        0.73767447616397
C           -2.65621948641835        3.66251270352508        0.91585693965544
C           -4.03864736688312        3.65992349988804        0.86190849711556
C           -4.70142850704534        2.47467355614144        0.60432096308416
C           -4.02612627692171        1.27431639660136        0.42216940778745
H           -6.47003500400738        0.58691935221508        1.39679796958207
H           -5.25837507603755       -0.43454058860331        2.17083413825230
H           -6.41006825679378       -1.13349603652286        1.03233768717632
H           -4.88449145427342        0.47748455265451       -2.02347243076568
H           -6.15425294770905       -0.62731856426798       -1.49480365084426
H           -6.27126729782853        1.08898367842196       -1.12228339792558
H           -5.54805182965938       -2.50314023272131       -0.47648442000514
H           -4.18971338350456       -4.51962594191898       -0.67742801798080
H           -1.73855554889166       -4.38777208533033       -0.30639785052033
H           -0.69984612987818       -2.24035553016675        0.19333209876816
H           -0.60832144425565        0.48080991081796        2.60123436212442
H            1.85192509139734        0.48352580087634        2.92320024527531
H            2.76554881987327       -0.52310117732321       -3.62563840156665
H            0.31024617186380       -0.46524263273793       -3.99758056143495
H           -1.21635408919698       -0.17366572063348       -2.09655825164701
H            5.96127710582479       -2.04032594105415        0.94974292961047
H            8.40731009468064       -2.04280961880126        1.30068445595217
H            9.74065273462904       -0.05518653950050        0.69778668509753
H            8.62950771688917        1.93131048980832       -0.25432463894752
H            6.18236726664581        1.93034308919005       -0.59883633065001
H           -0.88215925180378        2.50304092923446        0.76163046278104
H           -2.11472963020626        4.58056467518840        1.08992093843499
H           -4.59570421340161        4.57358018749119        1.00411847064396
H           -5.77854142377761        2.49115854570251        0.54092925862461
