61
 energy: -97.000325701508 gnorm: 0.000052485290 xtb: 6.7.1 (edcfbbe)
C           -6.31398264865451       -0.20587477700497        1.24160320758602
C           -5.33891024236303        0.03665283621194        0.07401872408022
C           -6.11794858292682        0.40761812544036       -1.20202385243855
C           -4.56261309453935       -1.24028282670611       -0.18623132437906
C           -5.24942836895367       -2.39379725092466       -0.54359621349355
C           -4.59819660801844       -3.57978223205223       -0.82678048303310
C           -3.21622309150020       -3.62065997586219       -0.77573984512552
C           -2.50948286756432       -2.48972160934518       -0.42393117553086
C           -3.16818747794821       -1.29973564032975       -0.10081466587616
N           -2.42613675965270       -0.17582801883318        0.25011177958136
C           -1.02631981864160       -0.29198726723737        0.39445659983004
C           -0.50070865715961       -0.98961388350711        1.46358041838581
C            0.87611300155494       -1.09749459785692        1.63839361545354
C            1.74655236623929       -0.51646114592810        0.73453537993425
C            1.23971206075967        0.18290758490076       -0.38122897593103
C            2.11436718927798        0.76332694098840       -1.32445925235210
C            1.60859660134136        1.42807002195814       -2.42463174571648
C            0.22916946513545        1.52771987484610       -2.61617598770305
C           -0.64016877668568        0.98099446683205       -1.70671899441668
C           -0.16164324174360        0.30375492305408       -0.56640231099653
C            3.56850436019773        0.65625921189812       -1.14490449680348
O            4.37588333196953        1.12295571637627       -1.92815637215650
N            3.99726017268709       -0.02661379438614       -0.01611705059921
C            5.41881672013385       -0.12559040779389        0.17699287444744
C            6.06088991851186       -1.33043225450319       -0.05840358957914
C            7.42892792249095       -1.42004318229895        0.13161624468530
C            8.14790655916847       -0.31168875101009        0.54654019360202
C            7.49914788907244        0.88979627918325        0.77720264610951
C            6.13052233639236        0.98686100615563        0.59600773870124
C            3.19385661832950       -0.62946303839564        0.94247872873791
O            3.69288094594893       -1.20425500828065        1.89351452294260
C           -3.03628108784916        1.04328369971962        0.53393188876325
C           -2.25690632236772        2.12614111339545        0.95180743821300
C           -2.82997541476579        3.34991038453847        1.22733470322301
C           -4.19851258652238        3.51188940256047        1.10401768987726
C           -4.97471928292748        2.43233754302697        0.72626108739947
C           -4.42368547373531        1.18895546911349        0.44210407098602
H           -6.90397137137088        0.68300098842683        1.44595821097866
H           -5.75885630484256       -0.46402572107922        2.14192986003785
H           -6.99520001044621       -1.02073188270846        1.01360449681882
H           -5.42616400995886        0.57698096446212       -2.02534190612102
H           -6.79883456615761       -0.38961118355292       -1.48610112634339
H           -6.69903230237249        1.31286258059741       -1.05067100337934
H           -6.32649947024277       -2.37073246693847       -0.60673078479822
H           -5.16404630396079       -4.45861458692871       -1.09652557872516
H           -2.68404045045276       -4.52945222874458       -1.01509689322197
H           -1.43115413273412       -2.52687295424627       -0.40509167998538
H           -1.17090661420048       -1.44587482224296        2.17671973608550
H            1.28533095989760       -1.62498874591774        2.48686385188017
H            2.30201245446946        1.86142607702767       -3.12992048508543
H           -0.14931127455753        2.03948796104273       -3.48732451045099
H           -1.70577324682420        1.06290113097393       -1.85679157279928
H            5.48968806174461       -2.18823495658685       -0.38192973469110
H            7.93191382661554       -2.35817339495908       -0.04866952830502
H            9.21534721416143       -0.38432110251278        0.69077254615566
H            8.05708018620150        1.75565108575486        1.10054532603528
H            5.61353419939881        1.91880076471782        0.77247044627575
H           -1.19094947448213        2.00679103202098        1.06920742269266
H           -2.20524026370740        4.17199145686681        1.54386078460373
H           -4.65962097663854        4.46528597467104        1.31305637021315
H           -6.04302534544846        2.56689515759082        0.65421218119121
