61
 energy: -96.940906430237 gnorm: 0.000092580221 xtb: 6.7.1 (edcfbbe)
C           -6.31446296434244        0.26026500585060        1.23150681556886
C           -5.33575244905318       -0.01592957806154        0.07071924754595
C           -6.12034518756115       -0.41819051407161       -1.19592835980864
C           -4.43051592070604       -1.15620294585890        0.47023236036526
C           -4.97911052796177       -2.39223079570325        0.78871903736765
C           -4.19671248524317       -3.45201765559057        1.20765795572293
C           -2.82436823404482       -3.28079849275986        1.34958759328280
C           -2.25160199958318       -2.07031567745371        1.04193309122496
C           -3.03447374804061       -1.00282283896755        0.56651957045957
N           -2.42784772928264        0.19157723322376        0.24144532524476
C           -1.02329516706895        0.31011505576747        0.35674753914148
C           -0.50097884199372        1.12681713710647        1.37340151671172
C            0.85077625815988        1.23908425457338        1.55384682326915
C            1.74393545622021        0.55721352910576        0.69505429697962
C            1.24152993877131       -0.24568003923570       -0.34980133834488
C            2.12482384092194       -0.89976632416354       -1.23098449404628
C            1.61746806310288       -1.67754852995148       -2.28835856424534
C            0.25933544618400       -1.78598841292887       -2.47605666543008
C           -0.63119256923371       -1.14651752686793       -1.61922256591401
C           -0.16397336663643       -0.38446358382860       -0.53892610907943
C            3.55630987562119       -0.77635933859934       -1.05829181001246
O            4.38232368317777       -1.34848542150673       -1.77458519239705
N            3.98323833676932        0.02109668687238       -0.00345585386850
C            5.39629340306067        0.15452996146937        0.17777528296841
C            6.00454884624677       -0.40980427598343        1.28845676860392
C            7.37093782639802       -0.27750723774798        1.46163453124336
C            8.12839328043008        0.40584213716443        0.52535091524336
C            7.51695751203751        0.96399549244635       -0.58457164538250
C            6.14944647681683        0.84530585147289       -0.75906930562951
C            3.16572072288821        0.70605861044908        0.89027249190174
O            3.66608916356193        1.40486381647687        1.77783609561761
C           -3.15478903323271        1.29022794818002       -0.15814763831377
C           -2.48060588391502        2.46497394297308       -0.54032190868826
C           -3.17965625249803        3.58925917211434       -0.90981474139860
C           -4.56906892834573        3.56331726147503       -0.93055057150424
C           -5.23739687758448        2.39606807082054       -0.60851847523952
C           -4.56102852949320        1.24493726262067       -0.22738263698611
H           -5.76224475832802        0.54493234153436        2.12481086632499
H           -6.90236135697869       -0.62373512447981        1.45679528952880
H           -6.99449498396616        1.06610409510403        0.97449531892335
H           -6.79387229197347        0.37722417446744       -1.49858708837597
H           -5.43173868942888       -0.61750276963834       -2.01446421119019
H           -6.70741193586989       -1.31267988685172       -1.01361291730028
H           -6.04491721884449       -2.53576176319124        0.71235305381747
H           -4.65281236437458       -4.40150569133066        1.44106964217866
H           -2.20611666396140       -4.08963224182824        1.70678590891180
H           -1.19041305806864       -1.93238755874878        1.16946554411318
H           -1.18689410246783        1.62841417245504        2.04019076996529
H            1.27158125875468        1.83641818798058        2.34719272328843
H            2.32517338203805       -2.17168023509418       -2.93630222547428
H           -0.12561329507741       -2.37959473273102       -3.29200164038719
H           -1.69207594437551       -1.24655467473623       -1.78957169423161
H            5.40375625085206       -0.94153623463111        2.01206243603690
H            7.84316921196148       -0.71424393538788        2.32926786062520
H            9.19529479181438        0.50374771180835        0.66065298510198
H            8.10376355958633        1.49759462969105       -1.31767552151244
H            5.66184575842696        1.27659888221405       -1.62144574867771
H           -1.40279778212718        2.47625344408592       -0.55202113054474
H           -2.64503390075744        4.48259425104962       -1.19295400652071
H           -5.12497640963649        4.44239078836827       -1.21719772537363
H           -6.31425053113495        2.38736666631035       -0.65984799226638
