  92
       -154.68031240
 N         11.5797794005       -1.6910412147        1.4516064840
 C         10.5347368878       -1.5600122841        0.9920215167
 C          9.2478122822       -1.3981762261        0.4491586238
 C          8.1617765001       -1.1517202802        1.2814464355
 C          6.8821574272       -0.9907787399        0.7578116181
 N          5.8308429703       -0.7551133280        1.5617621454
 C          4.6494709831       -0.6103057108        1.0501413592
 C          4.4403405709       -0.6987949765       -0.4006467025
 N          5.4650249328       -0.9297136666       -1.1911866926
 C          6.6786203847       -1.0803479774       -0.6762558163
 C          7.7909969474       -1.3298668259       -1.4971377087
 C          9.0513631922       -1.4868850734       -0.9546143312
 C         10.1539272149       -1.7370976229       -1.7990221660
 N         11.0403512220       -1.9404596556       -2.4989656276
 C          3.0555140969       -0.5017091118       -0.6611845126
 C          2.2572190108       -0.4755055152       -1.7989803775
 C          0.8938766699       -0.2442135863       -1.6419951921
 C          0.3013544282       -0.0250052852       -0.4032879092
 N         -1.1055041636        0.1693483988       -0.3143364109
 C         -1.9039676768       -0.9591356390       -0.2803736286
 C         -1.3329262564       -2.2353892182       -0.3735388012
 C         -2.1194511948       -3.3634266665       -0.3684536991
 C         -3.5095294289       -3.2712957886       -0.2704832658
 C         -4.3585895318       -4.4657587478       -0.2985107278
 C         -5.5825879432       -4.4457156440       -0.9667522854
 C         -6.3817746464       -5.5722829381       -1.0046172298
 C         -5.9770770890       -6.7359239370       -0.3712009966
 C         -4.7652314169       -6.7663617029        0.2990286980
 C         -3.9605957709       -5.6432658561        0.3330250983
 C         -4.0698933277       -2.0032781832       -0.1525026191
 C         -3.2934936619       -0.8589994288       -0.1520407721
 C         -3.9704493733        0.4753567933       -0.0038161879
 C         -5.0616685271        0.6257056631       -1.0500099153
 C         -4.9243407928        0.6630473570       -2.4193425932
 C         -6.0697064315        0.7883594174       -3.1948685757
 C         -7.3210428483        0.8720502748       -2.6035996411
 C         -7.4619672185        0.8347721253       -1.2252494362
 C         -6.3235856816        0.7110450905       -0.4461501677
 C         -6.1517463952        0.6434289817        0.9975816241
 C         -7.0742554330        0.6908694889        2.0294015782
 C         -6.6145660883        0.6057579564        3.3340930927
 C         -5.2614257839        0.4746581222        3.6058583982
 C         -4.3315932469        0.4251699514        2.5755070779
 C         -4.7850407073        0.5111880052        1.2785845846
 C         -3.0102747583        1.6328769197       -0.0582424264
 C         -3.5440356060        2.9114776359        0.0520600530
 C         -2.7479325578        4.0341181645        0.0033811349
 C         -1.3766854240        3.8804730334       -0.1682505466
 C         -0.8218623954        2.5936062221       -0.2769952225
 S          0.9160301706        2.6560287404       -0.5053202518
 C          0.9024204884        4.4022151292       -0.4525694395
 C          2.0100420721        5.2252801805       -0.5764249331
 C          1.8201469127        6.5916478535       -0.5114796970
 C          0.5470596711        7.1245776682       -0.3259143957
 C         -0.5537486516        6.3020838270       -0.2026785029
 C         -0.3865090356        4.9212093649       -0.2652647003
 C         -1.6277184400        1.4412141840       -0.2159477961
 C          1.0754799158       -0.0690238344        0.7882362645
 C          0.6453044743        0.1052005811        2.1191629214
 C          1.5551985829        0.0474165345        3.1568013584
 C          2.9208039924       -0.1806705350        2.9587247976
 C          3.3686479388       -0.3589639292        1.6625260098
 C          2.4385449912       -0.2998377486        0.6029556004
 H          8.2997783106       -1.0827160826        2.3495230164
 H          7.6401449417       -1.3968443786       -2.5635173996
 H          2.6764477576       -0.6299927716       -2.7800195625
 H          0.2598173319       -0.2207634516       -2.5172551431
 H         -0.2624633920       -2.3360299592       -0.4562934854
 H         -1.6522998098       -4.3313027566       -0.4671874226
 H         -5.8945315454       -3.5476407479       -1.4800785116
 H         -7.3233082818       -5.5442089421       -1.5332582401
 H         -6.6030927219       -7.6150293047       -0.4000231445
 H         -4.4468955573       -7.6695595994        0.7985592622
 H         -3.0257123050       -5.6687851472        0.8734544060
 H         -5.1388493495       -1.9022855071       -0.0372691723
 H         -3.9495010163        0.5959111630       -2.8803708668
 H         -5.9839461388        0.8198383041       -4.2707328444
 H         -8.1978958031        0.9675606629       -3.2267377970
 H         -8.4386105025        0.8995812472       -0.7695611649
 H         -8.1290910722        0.7923794609        1.8228314788
 H         -7.3196714288        0.6417765582        4.1512351249
 H         -4.9260445052        0.4098332651        4.6301287006
 H         -3.2775700943        0.3210988870        2.7891462624
 H         -4.6113695913        3.0145660207        0.1770848584
 H         -3.1774414362        5.0187801021        0.0902971909
 H          2.9915553109        4.8009869781       -0.7200177351
 H          2.6679156893        7.2529147004       -0.6056982895
 H          0.4223505326        8.1957128080       -0.2781505287
 H         -1.5381049559        6.7206106158       -0.0590329907
 H         -0.3990993152        0.2883301240        2.3278922970
 H          1.1993630715        0.1866739540        4.1674669379
 H          3.5998277415       -0.2145034197        3.7961288407
