92
 energy: -154.748670787253 gnorm: 0.000043326281 xtb: 6.7.1 (edcfbbe)
N           11.58052123324702       -1.87151363013878        1.32064498857704
C           10.53159839990754       -1.70081721422982        0.87889820157016
C            9.24641600454032       -1.49120051671460        0.35552047502498
C            8.16555135201860       -1.26627829263569        1.20710031726586
C            6.88670777199840       -1.06197098171597        0.69849680561890
N            5.84525756585819       -0.85474066926139        1.53299831414788
C            4.66265430619479       -0.67245028870526        1.01833237176478
C            4.44541107651469       -0.68111729048883       -0.41772781970382
N            5.45947010781372       -0.88427121573847       -1.24456930839457
C            6.67242392935707       -1.07774601442800       -0.73306004451320
C            7.77640428769771       -1.30616178155812       -1.57418057580670
C            9.03863854808999       -1.51137127739974       -1.04766002155221
C           10.13124679290972       -1.74382232306316       -1.90760940757952
N           11.01370034484446       -1.93346878763817       -2.61798221316256
C            3.05728191396762       -0.45490767220974       -0.66411987530349
C            2.25256325513491       -0.36019894181258       -1.79009545041088
C            0.88823024774612       -0.12912292019887       -1.61191153540786
C            0.30373182333363        0.02228843566698       -0.36177812002709
N           -1.10410486435289        0.21029605858203       -0.25748599725507
C           -1.89204190868648       -0.92539852795363       -0.22271313640738
C           -1.30536650446971       -2.19777851747823       -0.28887964004126
C           -2.07829068640382       -3.33420824397580       -0.27010890772967
C           -3.47198238087106       -3.25621742742307       -0.18773106686194
C           -4.30453953606366       -4.46253067641487       -0.19700501623890
C           -5.52442548899728       -4.47586218461396       -0.87478357214169
C           -6.30542261281719       -5.61590976310451       -0.89492590990033
C           -5.88797586591524       -6.75976864204810       -0.23306890066910
C           -4.68081623473844       -6.75682636574702        0.44752427704372
C           -3.89341627286986       -5.62098200841276        0.46298442020693
C           -4.04883409942733       -1.99178280701672       -0.10778894892842
C           -3.28649032220863       -0.83778319056972       -0.12142162588504
C           -3.97967611021200        0.49305838641022       -0.03100098628402
C           -5.02588261549942        0.61107490619426       -1.13004689980266
C           -4.82751870537043        0.62980163099699       -2.49261456937540
C           -5.93861525457545        0.73033118864512       -3.32076603385501
C           -7.21653311781633        0.80721893320528       -2.78774288635074
C           -7.41860440481556        0.78923392989330       -1.41634549275409
C           -6.31468735246641        0.69175968973448       -0.58486468337301
C           -6.20820965135067        0.65635786846126        0.86660804276575
C           -7.17842877578594        0.71533949493409        1.85377821842369
C           -6.77881419247120        0.67005500035474        3.18039551696810
C           -5.43751351924195        0.56840648943358        3.51716003713858
C           -4.46017570355261        0.50565310122820        2.53179424687817
C           -4.85419266362971        0.55053744938945        1.21324634992864
C           -3.02877690295735        1.65801660773745       -0.06977168358443
C           -3.57669752502642        2.93279216299970        0.00477888563484
C           -2.78911099996813        4.06296696845154       -0.02834444023312
C           -1.41011624597131        3.92124455702237       -0.13883224511397
C           -0.83891107795866        2.63856552157311       -0.21419872485883
S            0.90927692036635        2.71687251957195       -0.34949362434273
C            0.87669203257525        4.46431294039830       -0.30450600420113
C            1.98255695586241        5.29690111265416       -0.37198039329977
C            1.77635758982927        6.66217305356319       -0.32652858688647
C            0.48938651144215        7.18379058530293       -0.21742777443415
C           -0.60938734175662        6.35155153880338       -0.14957505283039
C           -0.42596497594319        4.97165256339709       -0.19271138234806
C           -1.63730856578813        1.47827680440122       -0.18073697675779
C            1.08754427261074       -0.08974926953663        0.82096659787511
C            0.66794648356891        0.00835323203145        2.16427211471408
C            1.58301052807701       -0.11558728325243        3.18856662147507
C            2.94874114408953       -0.34085784507507        2.96561778578465
C            3.38492519132552       -0.44328968573731        1.66082525700531
C            2.44727621013572       -0.31757586070128        0.61326300227423
H            8.31139031292309       -1.25066762867767        2.27648933874224
H            7.61814582460919       -1.32110346390729       -2.64171474697553
H            2.66260520168928       -0.46423771057508       -2.78197470540436
H            0.25276602640537       -0.05611652552684       -2.48317760671614
H           -0.23335975741452       -2.28869244900127       -0.36099923699174
H           -1.59812631583593       -4.29755257254208       -0.34609037701465
H           -5.84725554690121       -3.59529619257681       -1.41096607485580
H           -7.24309887537683       -5.61456502354338       -1.43169143158697
H           -6.49981944881439       -7.64973278537299       -0.24808436223886
H           -4.35282423429242       -7.64443482581956        0.96912467356623
H           -2.96300966860635       -5.62216792375864        1.01151447454710
H           -5.12037258514248       -1.90144137588429       -0.01350927707857
H           -3.83363967546256        0.56835406271766       -2.91145250189006
H           -5.80434010063648        0.74750233087044       -4.39227045035761
H           -8.06573728397048        0.88271190572184       -3.45124080845568
H           -8.41557748652638        0.84987334613791       -1.00648574539834
H           -8.22400547424586        0.79561541034069        1.59689011501571
H           -7.52170425638742        0.71593183606645        3.96336577661839
H           -5.14837742130789        0.53662582506543        4.55732710785426
H           -3.41679781012281        0.42519466659372        2.79871149364418
H           -4.64830165137531        3.02828068240398        0.08849485946488
H           -3.23104036245940        5.04398720925799        0.02926935857541
H            2.97551237815871        4.88255459249240       -0.45754689237375
H            2.62250733778559        7.33061667697471       -0.37746487451421
H            0.35278782690467        8.25419877350323       -0.18495940922991
H           -1.60334715135991        6.76253393987727       -0.06479112874319
H           -0.37304637828687        0.18355112590064        2.39131611156524
H            1.23756056599912       -0.03599236505648        4.20901006603936
H            3.63357261144302       -0.42979402230005        3.79467655720304
