92
 energy: -154.748413118825 gnorm: 0.000124570985 xtb: 6.7.1 (edcfbbe)
N           11.58115851709493       -1.72278392663740        1.36376889372150
C           10.52590605179384       -1.62659452803036        0.91482773143779
C            9.23260477550294       -1.50669323831319        0.38275501584362
C            8.15875289426811       -1.17502493579680        1.20746738237851
C            6.87253837075489       -1.05271592239525        0.69025462618947
N            5.84007196943477       -0.72978402942061        1.49808303386311
C            4.65180345755687       -0.62002091774246        0.97521962581694
C            4.41919400957685       -0.83636846115342       -0.44217904430591
N            5.42392757496449       -1.15621932388955       -1.24233583227410
C            6.64369022543395       -1.27104325684775       -0.72237267503618
C            7.74053150063561       -1.60619420764778       -1.53619692137274
C            9.01109126649314       -1.72204696343969       -1.00184058728241
C           10.09779143388567       -2.05681627333473       -1.83495885948803
N           10.97574101093178       -2.32994187694049       -2.52339199444852
C            3.02935713193696       -0.63984478079282       -0.70471945103058
C            2.21376426330324       -0.70007706267524       -1.82535650183744
C            0.85477838094385       -0.42624676707114       -1.67134391819820
C            0.28473487266736       -0.08528489315864       -0.45147904929775
N           -1.11492651254124        0.15013991696666       -0.35560309859075
C           -1.95225650896671       -0.95038147422706       -0.31558143852834
C           -1.43561254901954       -2.24656376291138       -0.45859578338404
C           -2.26534608710300       -3.34264490820637       -0.46211010576742
C           -3.64879515990215       -3.19962009746414       -0.31924318851102
C           -4.54608841999833       -4.35771638335965       -0.36304084505346
C           -5.79007101756388       -4.26276654365175       -0.98859708411468
C           -6.63475303413903       -5.35514553129372       -1.04424882058310
C           -6.25758493943132       -6.55856821376684       -0.46958756981442
C           -5.02677915024534       -6.66340074292921        0.15853345678223
C           -4.17606008116240       -5.57515229714296        0.20906396172528
C           -4.15292523012101       -1.91506002294820       -0.13563568939628
C           -3.33279382877025       -0.80156519252821       -0.12675700916134
C           -3.94308760472524        0.54792042251002        0.12868153318995
C           -5.15977636207350        0.76676461290887       -0.75624797771246
C           -5.20630400244678        0.84380398545610       -2.13052375317439
C           -6.43928014811665        1.04118857652162       -2.73987086885909
C           -7.59539723648421        1.15492314099836       -1.98231900351496
C           -7.55114300341875        1.07757122880857       -0.59874755946270
C           -6.32451215788306        0.88324243767759        0.01525115829425
C           -5.96376056027654        0.76567465164443        1.42077079695224
C           -6.73794712763785        0.81594417520793        2.56850008667246
C           -6.11301147274585        0.67337791483681        3.79769435220780
C           -4.74240446800503        0.48126741413448        3.88191659369453
C           -3.96097090046630        0.42859313486018        2.73458651354621
C           -4.57856914815050        0.57359233943047        1.51270334411267
C           -2.95939263318071        1.67627918615680       -0.02087472141788
C           -3.44671966742373        2.97241787966983        0.09599072142433
C           -2.62451661204121        4.07007148595080       -0.03730906301552
C           -1.27509648738105        3.87289176074037       -0.30916868779733
C           -0.76348308458321        2.56778219756007       -0.41949299104681
S            0.95016351645394        2.57653691039298       -0.79883558345538
C            0.98295324717876        4.32422535832116       -0.80812535206385
C            2.09488163957811        5.11207847911803       -1.06003927833442
C            1.94445476007647        6.48495796440517       -1.02523265620942
C            0.70648352630776        7.05776175049718       -0.74329650485215
C           -0.39872695616194        6.26985608825317       -0.49372633780180
C           -0.27134096861459        4.88334119353763       -0.52415292956265
C           -1.59359658642794        1.44003544335705       -0.26242266190232
C            1.08063530909774       -0.03279137845312        0.72750103120489
C            0.67868581254316        0.27382736363296        2.04464883401466
C            1.60372824150344        0.29289306776903        3.06735565068881
C            2.96379186664595        0.01776627068225        2.86778469015919
C            3.38311125990110       -0.28874694524331        1.58954101653407
C            2.43487354000289       -0.30971537848049        0.54402803186738
H            8.31583559265392       -1.00886769479895        2.26235401472658
H            7.57148077784266       -1.76987726643323       -2.58951605278268
H            2.61271287626832       -0.95018378540278       -2.79547072804500
H            0.21215498697850       -0.46835525329179       -2.53940331667176
H           -0.37336259049461       -2.38911241231724       -0.57483633380961
H           -1.83859602961843       -4.32370590487355       -0.60278064602615
H           -6.08265081030931       -3.33417261207213       -1.45680090601637
H           -7.59112166172996       -5.26952861816762       -1.53959316798862
H           -6.91917921872329       -7.41128577025581       -0.51196714001456
H           -4.73001938143131       -7.59803768288228        0.61220050278673
H           -3.22677397787188       -5.66059639817791        0.71710852667018
H           -5.21114428426317       -1.77774082739008        0.02712793955516
H           -4.30736000834793        0.75424927159197       -2.72298315049602
H           -6.49707321838630        1.10558735550828       -3.81645172577961
H           -8.54326097982599        1.30674726676245       -2.47793215555547
H           -8.45402515901155        1.16706270644003       -0.01355389420825
H           -7.80585945401528        0.96299063289656        2.50865882497396
H           -6.70121915316415        0.71054361910195        4.70302834761069
H           -4.27607513571092        0.37055951304385        4.84980654365518
H           -2.89433332857688        0.27359273335640        2.80477779007688
H           -4.49842487385571        3.11129592051408        0.29326341023600
H           -3.01937393281338        5.06839190838863        0.05519593249037
H            3.04963466051447        4.65823072063314       -1.27771818702316
H            2.79641729077151        7.11903587572288       -1.21888779457808
H            0.61320123523959        8.13310909610736       -0.72129061425202
H           -1.35485488974279        6.72018340162051       -0.27681495982504
H           -0.35633438518736        0.50159725143115        2.25230767464748
H            1.27119782244382        0.53261620567852        4.06688486429716
H            3.65737828188967        0.04815158171841        3.69378397855451
