  93
  -141.111101889300       0.508923143285290      !
 C          8.3144929972        3.7979303099        0.6315614886
 C          7.2844570237        3.2379695386       -0.3676227306
 C          7.1314538056        4.1922134830       -1.5673035172
 C          5.9460096205        3.1196387556        0.3329040862
 C          5.3473167095        4.2509962842        0.8698324646
 C          4.1316335345        4.1957471779        1.5264616250
 C          3.4853273626        2.9780796603        1.6618529373
 C          4.0548242436        1.8386525643        1.1382862005
 C          5.2824056724        1.8921323224        0.4658348950
 N          5.8254806612        0.7335243275       -0.0510428922
 C          5.1107774718       -0.4889065074        0.1065364239
 C          5.4091652374       -1.3364547864        1.1672577422
 C          4.7079651097       -2.5155296234        1.3189529143
 C          3.6861045970       -2.8540304276        0.4335186258
 C          2.9725738561       -4.1475951920        0.6216081958
 O          3.6005672519       -5.1641934106        0.9254740059
 C          1.5300234644       -4.1526207351        0.4540313439
 C          0.8215450740       -5.3784228674        0.3688566614
 C         -0.5358471538       -5.3872068472        0.2603835400
 C         -1.2409114775       -4.1552652743        0.2398538145
 C         -2.6875338119       -4.1884025592        0.1541339136
 O         -3.2982457662       -5.2720744129        0.1386141416
 C         -3.4515978507       -2.9242009239        0.1017592614
 C         -2.9045688574       -1.6788582063       -0.2027741591
 C         -3.7008137825       -0.5541380077       -0.2561772859
 C         -5.0657918281       -0.6508923745       -0.0006680502
 N         -5.8757659288        0.5158525081       -0.0580339236
 C         -5.8241594023        1.4191181495        0.9852397457
 C         -5.0277393513        1.1375183567        2.1032655116
 C         -4.9442393570        2.0246259300        3.1530538744
 C         -5.6595950488        3.2105121630        3.1123311988
 C         -6.4644182540        3.4813757532        2.0212679392
 C         -6.5702546358        2.6054317203        0.9493758552
 C         -7.4870924182        2.9441825554       -0.2078320507
 C         -7.0174206405        4.2682402328       -0.8401973723
 C         -8.9230068604        3.0897697629        0.3303436415
 C         -7.4715569450        1.8698735310       -1.2757581327
 C         -8.2613201376        2.0160909259       -2.4080031547
 C         -8.2670067435        1.0781542783       -3.4237840293
 C         -7.4532394794       -0.0386458235       -3.3236927025
 C         -6.6602156317       -0.2114211227       -2.2113690990
 C         -6.6680596995        0.7258015237       -1.1697471448
 C         -5.6272690052       -1.8897803228        0.2979705839
 C         -4.8309221910       -3.0110505656        0.3357476647
 N         -0.5552655243       -3.0113226682        0.3542055918
 C          0.7403711564       -2.9879494524        0.4593560584
 C          3.4102727177       -2.0082224918       -0.6400962886
 C          4.1189351174       -0.8338936942       -0.8043624224
 C          7.0413550138        0.7192977997       -0.7045421652
 C          7.5389766971       -0.4890009334       -1.2085321713
 C          8.7506653930       -0.5354513796       -1.8614538684
 C          9.4885911990        0.6250961092       -2.0282884965
 C          8.9958242561        1.8209869501       -1.5392952731
 C          7.7790193533        1.8987200130       -0.8759101535
 H          9.2876359442        3.9115353275        0.1624730271
 H          8.4175450734        3.1197403250        1.4766668856
 H          8.0031177106        4.7686180420        1.0069647444
 H          6.4112704221        3.7856243528       -2.2749579389
 H          8.0796057408        4.3240608479       -2.0808586331
 H          6.7809355365        5.1682772305       -1.2439936312
 H          5.8398146881        5.2070693649        0.7769666725
 H          3.6949063978        5.0952174672        1.9316416604
 H          2.5386217507        2.9144383427        2.1761944280
 H          3.5530399465        0.8901172481        1.2492084863
 H          6.1912095030       -1.0654411612        1.8611392343
 H          4.9359980377       -3.1899375433        2.1301225125
 H          1.3898450514       -6.2961754088        0.3874451414
 H         -1.1164100427       -6.2935473473        0.1876571314
 H         -1.8452132973       -1.6005964518       -0.3922511319
 H         -3.2748893342        0.4093377172       -0.4970196099
 H         -4.4762278719        0.2114298950        2.1404185972
 H         -4.3218167843        1.7895666857        4.0026722765
 H         -5.5974850370        3.9157044344        3.9264548187
 H         -7.0251123186        4.4036763437        2.0104668019
 H         -6.0001138821        4.1610755085       -1.2120632552
 H         -7.0330727553        5.0735133811       -0.1111668965
 H         -7.6578383235        4.5494138222       -1.6713251890
 H         -9.2500224625        2.1503417101        0.7719616800
 H         -8.9755047425        3.8627559750        1.0917933836
 H         -9.6119552930        3.3518267702       -0.4674531469
 H         -8.8912902995        2.8869842365       -2.5070817618
 H         -8.8951234276        1.2221494637       -4.2889585547
 H         -7.4338207459       -0.7747091617       -4.1125532848
 H         -6.0211194651       -1.0770620131       -2.1410659251
 H         -6.6870348059       -1.9585074437        0.4948497654
 H         -5.2451189511       -3.9833626944        0.5549276991
 H          1.1871447352       -2.0099158508        0.5839438847
 H          2.6549510502       -2.2845343765       -1.3605043990
 H          3.9106174339       -0.1773141966       -1.6366110206
 H          6.9637348495       -1.3927718820       -1.0827301824
 H          9.1174034853       -1.4769256401       -2.2403548763
 H         10.4391759513        0.6005456662       -2.5378752760
 H          9.5807595471        2.7167788796       -1.6825899248
  93
  -141.110994652300       0.454327984232900      !
 C          8.3471582728        3.6745021065        0.8444935549
 C          7.2946892641        3.2414897626       -0.1940738843
 C          7.1681543313        4.3056942082       -1.3003839640
 C          5.9577546602        3.1025410164        0.5055634929
 C          5.3851025369        4.2061759978        1.1225875235
 C          4.1732876369        4.1297301735        1.7842741738
 C          3.5044110821        2.9181477335        1.8431144887
 C          4.0490328018        1.8054316735        1.2415028998
 C          5.2735109585        1.8805421921        0.5654523416
 N          5.7910424729        0.7489209883       -0.0309220194
 C          5.0804719960       -0.4799162189        0.0965548350
 C          5.3817878062       -1.3448587053        1.1422544080
 C          4.6847728248       -2.5285285369        1.2730460372
 C          3.6650663643       -2.8562792344        0.3808228286
 C          2.9568367475       -4.1545366750        0.5574188681
 O          3.5924211146       -5.1705036823        0.8499577042
 C          1.5137040247       -4.1664075284        0.4036040992
 C          0.8096865578       -5.3968296469        0.3464245957
 C         -0.5487106442       -5.4141951789        0.2533860999
 C         -1.2583619591       -4.1854911938        0.2160800152
 C         -2.7045495394       -4.2167787476        0.1512214555
 O         -3.3266695923       -5.2928508384        0.1766474941
 C         -3.4548670103       -2.9440297820        0.0783836745
 C         -2.9170885523       -1.7395559165       -0.3720217156
 C         -3.6960189277       -0.6029921903       -0.4373604709
 C         -5.0313327235       -0.6472618221       -0.0468971715
 N         -5.8272679414        0.5283532277       -0.1135733128
 C         -5.6416611726        1.5205126257        0.8295302979
 C         -4.6968963510        1.3389895734        1.8482667953
 C         -4.4778142169        2.3174385918        2.7920827505
 C         -5.2034555773        3.4966937521        2.7446281368
 C         -6.1553504243        3.6686712381        1.7569418448
 C         -6.3988883332        2.6999418985        0.7928225556
 C         -7.4784200391        2.9312774457       -0.2442892770
 C         -7.1383449906        4.2049748013       -1.0413913818
 C         -8.8258515431        3.1003372764        0.4830902360
 C         -7.5894138041        1.7730445758       -1.2139045494
 C         -8.5277378565        1.8211210923       -2.2359959751
 C         -8.6530284026        0.8043592465       -3.1643589190
 C         -7.8104928531       -0.2929834132       -3.0895914658
 C         -6.8732674788       -0.3703076742       -2.0838573300
 C         -6.7613099884        0.6453420933       -1.1247476314
 C         -5.5833378664       -1.8470604104        0.3945949728
 C         -4.8069856046       -2.9824475128        0.4413974045
 N         -0.5778081338       -3.0357785494        0.3053841468
 C          0.7179433573       -3.0048502465        0.3990808026
 C          3.3893032436       -1.9948057420       -0.6801268502
 C          4.0928530920       -0.8141410547       -0.8226912038
 C          6.9888555414        0.7617521796       -0.7165229466
 C          7.4507858537       -0.4158585571       -1.3177539611
 C          8.6431293605       -0.4353417140       -2.0066656238
 C          9.3987148752        0.7213562316       -2.1091213743
 C          8.9433303640        1.8863775939       -1.5195340696
 C          7.7446688092        1.9375300226       -0.8215118906
 H          8.4337462516        2.9179968097        1.6223238560
 H          8.0668433373        4.6148722134        1.3107896287
 H          9.3207911832        3.8009405793        0.3794399548
 H          6.4221516629        3.9956658251       -2.0298187504
 H          8.1143726605        4.4442866752       -1.8154714620
 H          6.8653403079        5.2628782154       -0.8855757316
 H          5.8961229814        5.1564572346        1.0914205209
 H          3.7569533259        5.0079944851        2.2525102181
 H          2.5595699829        2.8384021006        2.3585854457
 H          3.5295309279        0.8613177871        1.2917878345
 H          6.1614709059       -1.0823315581        1.8419713916
 H          4.9136801783       -3.2161216210        2.0727714892
 H          1.3824133129       -6.3115549613        0.3753999173
 H         -1.1255266332       -6.3245242182        0.2046179123
 H         -1.8813891733       -1.6996011146       -0.6696496217
 H         -3.2790636177        0.3283104681       -0.7929820286
 H         -4.1372486424        0.4183237776        1.8944712679
 H         -3.7425858365        2.1575620043        3.5656697225
 H         -5.0370656992        4.2722563873        3.4758812067
 H         -6.7241868654        4.5859199712        1.7432657953
 H         -6.1824360372        4.0815732020       -1.5471272198
 H         -7.0703554052        5.0673825540       -0.3845405454
 H         -7.8983363390        4.4081479482       -1.7904165441
 H         -9.0621992519        2.1958155145        1.0403863252
 H         -8.7874380751        3.9320929041        1.1806862298
 H         -9.6282686654        3.2867422246       -0.2250084425
 H         -9.1820117544        2.6758496548       -2.3160807902
 H         -9.3950993803        0.8727066089       -3.9444190436
 H         -7.8815438047       -1.0884817935       -3.8152523882
 H         -6.2125788035       -1.2210338890       -2.0352275043
 H         -6.6208012827       -1.8753616837        0.6938000968
 H         -5.2178261296       -3.9250205988        0.7691900743
 H          1.1606753161       -2.0230290193        0.5060284665
 H          2.6380195602       -2.2623779913       -1.4080541663
 H          3.8837614320       -0.1449156506       -1.6446363057
 H          6.8629768303       -1.3168720001       -1.2384166296
 H          8.9817053866       -1.3530184683       -2.4624415238
 H         10.3356780419        0.7171615205       -2.6438803760
 H          9.5447302061        2.7783113135       -1.6084826789
  93
  -141.108352877900       2.775198382925972E-002 !
 C          8.1844898618        2.7602145799        1.3375315338
 C          7.4719788375        3.0694344758        0.0006011338
 C          8.0104962870        4.3943519676       -0.5458348484
 C          5.9869363297        3.1334574688        0.3020615548
 C          5.3462952901        4.3106340514        0.6552597607
 C          4.0251743410        4.3255995820        1.0708323358
 C          3.3204163518        3.1380702642        1.1623207522
 C          3.9262794526        1.9534680547        0.8022398294
 C          5.2488863602        1.9387897281        0.3493304298
 N          5.8256759187        0.7520542654       -0.0623331991
 C          5.1100793064       -0.4662015388        0.1154396101
 C          5.4151745226       -1.2803506150        1.1983542521
 C          4.7214575513       -2.4593941563        1.3870520329
 C          3.7017023119       -2.8311321197        0.5136150707
 C          2.9921209042       -4.1203626503        0.7414830521
 O          3.6204322203       -5.1247743198        1.0834248181
 C          1.5501629182       -4.1335683322        0.5670327442
 C          0.8429083231       -5.3617512890        0.5138883925
 C         -0.5131995712       -5.3748965084        0.3886947685
 C         -1.2185152524       -4.1448878075        0.3199240826
 C         -2.6635427563       -4.1812381180        0.2110905449
 O         -3.2730536347       -5.2654516444        0.2103723104
 C         -3.4274111482       -2.9187367007        0.1232268018
 C         -2.8757529498       -1.6761376697       -0.1838399157
 C         -3.6701284129       -0.5510772037       -0.2562305605
 C         -5.0384030756       -0.6457686448       -0.0191964657
 N         -5.8475760578        0.5217148377       -0.0815154670
 C         -5.8452883887        1.3949739340        0.9878618147
 C         -5.0673401830        1.1027734677        2.1161119795
 C         -5.0391165047        1.9572728144        3.1954258308
 C         -5.7924284432        3.1201400347        3.1742995074
 C         -6.5748953714        3.4031510826        2.0701446544
 C         -6.6230553130        2.5613915027        0.9671903436
 C         -7.5185422084        2.9101571603       -0.2038985783
 C         -7.0879025193        4.2770179612       -0.7690863350
 C         -8.9742349734        2.9735053171        0.2966128846
 C         -7.4298433810        1.8802557768       -1.3113715760
 C         -8.1797556528        2.0473251323       -2.4675689008
 C         -8.1239843706        1.1450772546       -3.5139202449
 C         -7.2896682333        0.0428830089       -3.4196320869
 C         -6.5358197984       -0.1505768478       -2.2836673887
 C         -6.6035962749        0.7517319121       -1.2138094195
 C         -5.6059170483       -1.8829950310        0.2740182290
 C         -4.8107422503       -3.0041609088        0.3327022770
 N         -0.5344886657       -2.9979020473        0.4102593485
 C          0.7595473176       -2.9700171775        0.5302093375
 C          3.4213495668       -2.0209171563       -0.5866395922
 C          4.1207921475       -0.8473922168       -0.7858561517
 C          6.9664061274        0.7521103185       -0.8434759815
 C          7.3137394298       -0.3922626220       -1.5675556266
 C          8.4183509495       -0.3908986527       -2.3919374937
 C          9.1855340549        0.7550957625       -2.5115185978
 C          8.8578129487        1.8824749387       -1.7769142194
 C          7.7627090851        1.9058208104       -0.9276034047
 H          7.8254618234        1.8216088959        1.7546207036
 H          7.9915816414        3.5530200156        2.0573339328
 H          9.2576702396        2.6785938514        1.1790266774
 H          7.5331661726        4.6444848882       -1.4906630758
 H          9.0847925978        4.3382514061       -0.6957048828
 H          7.8383975008        5.1992201764        0.1625028389
 H          5.8780782585        5.2473349605        0.6219616196
 H          3.5574402587        5.2603428967        1.3385079123
 H          2.2982121136        3.1320147230        1.5088740617
 H          3.3758810613        1.0280007774        0.8676466762
 H          6.1962062850       -0.9853219183        1.8836177809
 H          4.9549143408       -3.1073169024        2.2179943060
 H          1.4108076304       -6.2784465749        0.5676610524
 H         -1.0918206581       -6.2839682856        0.3369625980
 H         -1.8134839405       -1.6002884722       -0.3577046679
 H         -3.2402605834        0.4105715979       -0.4970369313
 H         -4.4861775724        0.1944912858        2.1377107495
 H         -4.4302193241        1.7146296455        4.0527725601
 H         -5.7761093102        3.7983124959        4.0133113726
 H         -7.1651586515        4.3069166269        2.0744944954
 H         -6.0609416486        4.2237143853       -1.1260668338
 H         -7.1463927145        5.0483864018       -0.0063196395
 H         -7.7242558282        4.5716512039       -1.5988070743
 H         -9.2697997442        2.0061214190        0.6984067707
 H         -9.0826091128        3.7178009404        1.0803487754
 H         -9.6516634507        3.2300665582       -0.5129343199
 H         -8.8278403681        2.9055998830       -2.5607953307
 H         -8.7223224468        1.3044919500       -4.3973929434
 H         -7.2247283324       -0.6659919902       -4.2309015582
 H         -5.8812864251       -1.0050136876       -2.2151178308
 H         -6.6688444905       -1.9499233200        0.4534154576
 H         -5.2282880911       -3.9747537649        0.5532152867
 H          1.2041141320       -1.9883125403        0.6316403080
 H          2.6694153245       -2.3251579431       -1.2993474351
 H          3.9104045318       -0.2195705344       -1.6397517165
 H          6.7079248314       -1.2807600296       -1.4815580837
 H          8.6743433025       -1.2820304155       -2.9441482595
 H         10.0460209580        0.7702563551       -3.1622397309
 H          9.4872106892        2.7520276735       -1.8718450114
  93
  -141.107288396700       8.996888652550755E-003 !
 C          8.1380324347        2.7864551142        1.5043448760
 C          7.4858272646        3.0767793924        0.1329531304
 C          8.0459559346        4.3959914287       -0.4077407351
 C          5.9886489803        3.1456468380        0.3681610660
 C          5.3463874044        4.3241337848        0.7151870643
 C          4.0090500944        4.3492657227        1.0734322770
 C          3.2882615585        3.1686039996        1.1168499099
 C          3.8962921272        1.9829218843        0.7650610015
 C          5.2359875536        1.9590561087        0.3646480331
 N          5.8158208085        0.7715558214       -0.0389447766
 C          5.0911745780       -0.4461234996        0.0973615310
 C          5.4088747727       -1.3096874455        1.1382584325
 C          4.7135478600       -2.4932596118        1.2841016437
 C          3.6788501761       -2.8224199709        0.4106315536
 C          2.9753757603       -4.1219901479        0.5922467464
 O          3.6136240723       -5.1369323444        0.8819706521
 C          1.5318683847       -4.1378653074        0.4369206026
 C          0.8334866763       -5.3693650673        0.3499795664
 C         -0.5246725167       -5.3898562950        0.2533175464
 C         -1.2393516344       -4.1635287359        0.2422754585
 C         -2.6854655128       -4.2020571275        0.1707112317
 O         -3.2993842490       -5.2833152748        0.1793843281
 C         -3.4456790532       -2.9352446927        0.1060190855
 C         -2.9102833399       -1.7166329247       -0.3082391594
 C         -3.7003874521       -0.5879613342       -0.3739108747
 C         -5.0450329611       -0.6541768010       -0.0197732185
 N         -5.8510247831        0.5149822518       -0.0846137761
 C         -5.7083539002        1.4821634046        0.8910705865
 C         -4.8001875583        1.2788811481        1.9386277389
 C         -4.6257787672        2.2309265311        2.9179784208
 C         -5.3600188245        3.4052085680        2.8770906968
 C         -6.2747973567        3.5988598237        1.8587896511
 C         -6.4732097903        2.6567483806        0.8585757945
 C         -7.5142483556        2.9096261399       -0.2122349820
 C         -7.1559325765        4.2085391730       -0.9588560184
 C         -8.8897295230        3.0468951044        0.4679199305
 C         -7.5793457199        1.7779632484       -1.2169314486
 C         -8.4784326990        1.8481359976       -2.2723285944
 C         -8.5658295648        0.8529326468       -3.2280893607
 C         -7.7243173161       -0.2447659972       -3.1466763073
 C         -6.8237267184       -0.3426282617       -2.1097144593
 C         -6.7494542472        0.6515920937       -1.1248323498
 C         -5.5941463688       -1.8672158013        0.3874816420
 C         -4.8059223295       -2.9943684560        0.4351088850
 N         -0.5639076096       -3.0134340860        0.3594204694
 C          0.7317030585       -2.9797730170        0.4573422376
 C          3.3849105111       -1.9621628100       -0.6471457151
 C          4.0871314888       -0.7836095930       -0.8049468454
 C          7.0037644310        0.7638058434       -0.7459449811
 C          7.3753658523       -0.3785615247       -1.4618736532
 C          8.5321504520       -0.3915130242       -2.2106392391
 C          9.3299756908        0.7386283599       -2.2613731288
 C          8.9730305444        1.8655670748       -1.5402814494
 C          7.8211693963        1.9050386504       -0.7697278997
 H          7.7557264421        1.8562670413        1.9197171469
 H          7.9176641658        3.5911695087        2.2023730800
 H          9.2166116017        2.6974120348        1.3948097299
 H          7.6087275213        4.6308497996       -1.3756028938
 H          9.1253663156        4.3412159638       -0.5113703908
 H          7.8422088740        5.2113561496        0.2797343769
 H          5.8905289029        5.2541962367        0.7225632759
 H          3.5410104710        5.2852615038        1.3360262606
 H          2.2526765684        3.1688522675        1.4209254682
 H          3.3343396419        1.0628495543        0.7975710495
 H          6.2022200744       -1.0490368077        1.8231347635
 H          4.9570660403       -3.1793974206        2.0807252093
 H          1.4096922469       -6.2823268295        0.3581613007
 H         -1.0978068714       -6.3009570690        0.1815401493
 H         -1.8672433469       -1.6603218278       -0.5765119875
 H         -3.2855834540        0.3543983299       -0.7019287670
 H         -4.2339779935        0.3619168734        1.9788322629
 H         -3.9184507417        2.0545322289        3.7137147022
 H         -5.2285975804        4.1601281516        3.6365422270
 H         -6.8503733337        4.5119637317        1.8495330771
 H         -6.1823044524        4.1063739509       -1.4347222271
 H         -7.1168349701        5.0513077760       -0.2746377535
 H         -7.8912722686        4.4294966774       -1.7272194184
 H         -9.1384266886        2.1246511259        0.9897644459
 H         -8.8857190005        3.8585575404        1.1898783224
 H         -9.6663786311        3.2466861995       -0.2648233577
 H         -9.1324934877        2.7026524742       -2.3565063512
 H         -9.2790136104        0.9376787059       -4.0331008126
 H         -7.7676835426       -1.0244417456       -3.8914625928
 H         -6.1633968791       -1.1933389057       -2.0551582865
 H         -6.6385610949       -1.9125834758        0.6591984109
 H         -5.2139550679       -3.9472971815        0.7355510044
 H          1.1711947660       -1.9992463090        0.5874656101
 H          2.6216827490       -2.2313751752       -1.3619593709
 H          3.8672770920       -0.1185041708       -1.6277931694
 H          6.7459085781       -1.2540718989       -1.4294439836
 H          8.8056732497       -1.2809310154       -2.7570766768
 H         10.2342293698        0.7425694495       -2.8499338141
 H          9.6249731643        2.7225272309       -1.5825888548
