93
 energy: -147.951581352594 gnorm: 0.000097049333 xtb: 6.7.1 (edcfbbe)
N            1.87853275748274        5.92256741007536       -1.16064707437879
C            1.79826533480820        4.79627931487429       -0.94627071345696
C            1.70265912081984        3.41638275320704       -0.67321278310187
C            0.45518313156895        2.82071211761315       -0.60355008221088
C            0.34536740818334        1.44259462997796       -0.33637624904409
C           -0.91299521357463        0.80302613696773       -0.25632156953481
N           -2.05761825285059        1.54528820606831       -0.30727256280055
C           -3.19016650308310        0.91379415830043       -0.17599752280529
N           -4.35494911032298        1.65234773112487       -0.17133639729834
C           -4.45354598367281        3.00031324464889        0.14890936985424
C           -3.47001346588822        3.89174025198583        0.55090048395272
C           -3.84758200864858        5.19549502347158        0.82260676878226
C           -5.17383407127590        5.60317530640839        0.71473431646426
C           -6.16362430795963        4.71237278751641        0.33440150719604
C           -5.80508510282740        3.40307389852632        0.05324760941447
C           -6.55497591708531        2.24034313591966       -0.34843848591859
C           -7.90011816630757        2.02302100685361       -0.60352583403822
C           -8.30546509357688        0.75596983315382       -0.98835316769977
C           -7.38373442072548       -0.27724766721601       -1.12723332082029
C           -6.03534777068749       -0.07904679434508       -0.88487268042159
C           -5.62600737887691        1.18186776657839       -0.47636454804163
N           -3.32039671611757       -0.42247929965717       -0.05372269595321
C           -2.15820649942569       -1.10352882055166       -0.06092727207513
N           -2.24023360153344       -2.47819795570138        0.00598529748386
C           -3.29383475888617       -3.21456668103701        0.53066756375759
C           -4.44823046064889       -2.78476313461328        1.16850881010384
C           -5.34176202546356       -3.74618124373977        1.60808513407544
C           -5.08928491522762       -5.10400230449468        1.43621768945880
C           -3.92736141142560       -5.53961862544382        0.82162342404490
C           -3.02119904937705       -4.59274968024359        0.36957198938525
C           -1.74260860819753       -4.68727605382442       -0.28799599338938
C           -0.97247441829508       -5.75748804514980       -0.71643136528315
C            0.22742624536932       -5.49490466229931       -1.35568373889506
C            0.65509858326875       -4.18814092533753       -1.56864666615200
C           -0.09638999281460       -3.10599659807683       -1.14469951599524
C           -1.29242283421370       -3.36307258666122       -0.49193780450267
N           -0.98055049832155       -0.55171592624025       -0.12176500958715
C            1.54102680410488        0.70584905133205       -0.13742384622632
C            2.77566954518542        1.30574095050676       -0.19117110048534
Si           4.36327140999133        0.31630135980235        0.16894003902323
C            5.58847538690199        0.72549682117453       -1.22216335862283
C            6.91971240086290        1.02440702006085       -0.94853565043638
C            7.81006229863741        1.30237241838647       -1.97104038542296
C            7.38072940838561        1.28938698790175       -3.28778360727966
C            6.05742308557293        0.99727565563343       -3.57668686913104
C            5.17123368930853        0.72094299778312       -2.55119504987200
C            5.06350955585545        0.82419982926533        1.85747510278355
C            4.71512451958105        2.02271865364289        2.47378609212070
C            5.26154596461304        2.38398973920178        3.69287736513106
C            6.16926771373545        1.54754616953758        4.32123599387869
C            6.52322847979230        0.34777808241805        3.72521210554785
C            5.97330632435439       -0.00836698254679        2.50729557348253
C            3.99839617318835       -1.54324078561877        0.21730597820301
C            4.52059634094693       -2.41572472397852       -0.73334581188748
C            4.27050678861295       -3.77525158586632       -0.66627715315788
C            3.48290477377003       -4.28672778775273        0.35148535475990
C            2.95293437225728       -3.43244356824694        1.30482553332418
C            3.21419844955055       -2.07622333248613        1.23867686369138
C            2.87533487454526        2.66929199667625       -0.47234980061934
H           -0.43937759881242        3.40168358918368       -0.77215981200066
H           -2.44522615106214        3.57198530656241        0.64789183467013
H           -3.09552449554772        5.90661613137904        1.13000765910336
H           -5.43196629893299        6.62709640773968        0.93855421761523
H           -7.19283675335901        5.02703941086601        0.25877074575461
H           -8.61255440686193        2.82703557709151       -0.50344380246571
H           -9.34842342369745        0.56681001732280       -1.19228784752026
H           -7.72234220406052       -1.25418463420728       -1.43763352144880
H           -5.32234944318583       -0.87809646874447       -1.00512527458841
H           -4.64236262546327       -1.73424808812730        1.31093682373616
H           -6.25016769861854       -3.43211463723173        2.09954424212856
H           -5.80728721427180       -5.82554400404867        1.79548288722153
H           -3.72703591636478       -6.59247536358001        0.69724826856089
H           -1.30717544098791       -6.77102278512766       -0.55872584788236
H            0.83827139722646       -6.31407854840247       -1.70338836133307
H            1.58973505920411       -4.01006399460638       -2.07717679123699
H            0.23327765156023       -2.09377564258864       -1.31485520175319
H            1.44450203790308       -0.34781418803033        0.07466745999326
H            7.25902047799867        1.03983745604497        0.07694884665515
H            8.84057114911310        1.53163203323873       -1.74015694945037
H            8.07328431119408        1.51008947755652       -4.08713690194055
H            5.71601120400266        0.98839476992517       -4.60209809261510
H            4.13803744087367        0.50002886132642       -2.78113572056282
H            4.00317059783193        2.67957072818488        1.99452822673633
H            4.97799341504127        3.31970943380374        4.15370330032990
H            6.59635166512444        1.82824001569210        5.27309317635444
H            7.22920711224894       -0.31019030304175        4.21159099103878
H            6.25033694919153       -0.94670086119563        2.04822214178138
H            5.13616563242222       -2.02267029828455       -1.52958520953009
H            4.69067081907067       -4.43745398313848       -1.41002884948652
H            3.28288840830842       -5.34671539793966        0.40466840074756
H            2.33659600053358       -3.82595911896452        2.10082016944673
H            2.80908851857269       -1.41666692167782        1.99378101540123
H            3.83622538200419        3.15468078472806       -0.54454112549519
