93
 energy: -148.041882442742 gnorm: 0.000033059234 xtb: 6.7.1 (edcfbbe)
N            1.71097749930360        6.01608530604526       -1.40986683548970
C            1.63845814462875        4.90226287426824       -1.14345607961267
C            1.55278482396170        3.53093391816588       -0.81135145542483
C            0.30651263249357        2.91440661099157       -0.74495187892520
C            0.23248466011969        1.56495804113796       -0.41920388639784
C           -1.07571095645947        0.90558660679139       -0.32788095319457
N           -2.15256820062051        1.68045754037874       -0.32359332441475
C           -3.31874366131615        1.03770280242609       -0.25194111368835
N           -4.45953221193787        1.78663976007702       -0.27911687932405
C           -5.74225970820129        1.32362132655744       -0.58961548883831
C           -6.15992826292270        0.07419625421630       -1.01617182679064
C           -7.50742607427221       -0.10510525252729       -1.28181624724575
C           -8.42114455048267        0.93383513279832       -1.14187767418878
C           -8.00471420296906        2.19141475122529       -0.74685267105856
C           -6.65870819627541        2.38909800199901       -0.47363854883857
C           -5.90388125905107        3.54974715819253       -0.07471794423270
C           -6.27008056896125        4.85870439900313        0.20466260101485
C           -5.28732116281637        5.75339100974291        0.58462193252502
C           -3.96179996110595        5.34751664662677        0.69510432653020
C           -3.57829948621646        4.04484508745083        0.42267251689674
C           -4.55571402866007        3.14845836059589        0.02461975911712
N           -3.44450263954055       -0.28191180664296       -0.15409513375413
C           -2.30539826151032       -0.96803119392246       -0.14442199460224
N           -2.37818913742346       -2.32447839882068       -0.02117326898724
C           -3.48000350337754       -3.05356072225144        0.44026530843751
C           -4.69411777163845       -2.61542192688480        0.94167756799074
C           -5.60984490293438       -3.56908619586782        1.35503549747189
C           -5.32564599792609       -4.92844603855361        1.28683807905771
C           -4.10312640862595       -5.37049880853128        0.81666689744235
C           -3.17430699690535       -4.42948614867717        0.39598588485699
C           -1.83130164873150       -4.54495905570257       -0.11289676661214
C           -1.01996950974739       -5.63815984780130       -0.38117027011120
C            0.24582130536263       -5.41241312805071       -0.88876086163161
C            0.69141116212255       -4.11884197885937       -1.13666691211543
C           -0.10515028097227       -3.01626588921788       -0.87594579567263
C           -1.36732146213069       -3.23477018476029       -0.35040969228168
N           -1.09445414278036       -0.41756960396859       -0.24764659358881
C            1.40264919109660        0.85012356820712       -0.17189994402292
C            2.65219451003317        1.45607325868840       -0.22717054240384
Si           4.22599849958539        0.44933460811414        0.14367344810112
C            4.15509523431294       -1.13308834783036       -0.89689471329353
C            3.67194355919740       -1.09786840039933       -2.20357033501194
C            3.65726640067804       -2.23512183699319       -2.99078749176553
C            4.12758917753935       -3.43539843123112       -2.48196277825077
C            4.60597933501265       -3.49002597901608       -1.18275583582408
C            4.61782690344713       -2.34874858245735       -0.40050529015511
C            5.73768811204266        1.49382755835425       -0.32467235937579
C            6.46471057746977        1.24948586141417       -1.48652412376316
C            7.55878850774520        2.02833321419193       -1.82065314124717
C            7.94707922251660        3.07031578846480       -0.99492375483300
C            7.23771307247498        3.32585236039220        0.16760465330160
C            6.14597462527452        2.54332925107750        0.49719176182708
C            4.30403342966247        0.05518399729618        1.99566107399073
C            5.51940169160358       -0.30906160160657        2.57218105431512
C            5.61002369939322       -0.61304711531080        3.91832511335067
C            4.48033897743139       -0.55686078150065        4.71841676214454
C            3.26447664878699       -0.19439073808169        4.16308645338481
C            3.18015065994498        0.10771775590879        2.81508815014887
C            2.71628295781044        2.80402970256194       -0.54910551589670
H           -0.59603748006685        3.46901663638229       -0.95195976069027
H           -5.46004728069843       -0.73487612848838       -1.13911883579642
H           -7.85066736179614       -1.07591683719240       -1.60682833398800
H           -9.46440794021264        0.75593436341053       -1.35477519581908
H           -8.70562998077318        3.00662977819864       -0.65550551928822
H           -7.30176163031759        5.16530801224675        0.12847429866490
H           -5.54830979030031        6.77782401351208        0.80320111047789
H           -3.21087072373820        6.06088862261929        1.00082991895272
H           -2.55088509914643        3.73657662213322        0.51820506783608
H           -4.92294058521719       -1.56552840929807        1.00941991581554
H           -6.56404710920009       -3.24285668786264        1.74092529159939
H           -6.06572327371710       -5.64291176425602        1.61437406913245
H           -3.86905513065162       -6.42315155361119        0.77959182793606
H           -1.37630813338317       -6.64009594141962       -0.19810267118987
H            0.89604760991934       -6.24736149849410       -1.10178807335264
H            1.67988249318721       -3.96286502759735       -1.54081543058456
H            0.24683875084923       -2.01915533105351       -1.07758311070704
H            1.32183733585384       -0.19873660914354        0.07018757944360
H            3.30283496526860       -0.16493100376718       -2.60726253120049
H            3.27797156953474       -2.18730519929191       -4.00196261525397
H            4.11896413657947       -4.32457328677268       -3.09625845933708
H            4.96909216321081       -4.42452566042525       -0.77972628334045
H            4.99005687554875       -2.39847417372281        0.61223348047904
H            6.16983765334649        0.43593436783058       -2.13351241397911
H            8.11066137258783        1.82268046379736       -2.72680859619830
H            8.80060460356697        3.67978714840472       -1.25431190183803
H            7.53705826914106        4.13592598771352        0.81744459732098
H            5.60070127000738        2.74379062067716        1.40917801808589
H            6.40520883685756       -0.34715088893563        1.95436567424326
H            6.56202549613033       -0.89270078835594        4.34623203011812
H            4.54745980837908       -0.79176501614495        5.77084085891518
H            2.37947354388522       -0.14604990627861        4.78223014526986
H            2.22651019863317        0.39411564210224        2.39405296240956
H            3.67314150216005        3.30166691513964       -0.60418303320715
