  93
       -147.97921769
 N          1.7789305190        6.1655340110       -0.8796795445
 C          1.6985476278        5.0377570133       -0.6871296084
 C          1.6149683822        3.6480685912       -0.4415243784
 C          0.3686845278        3.0305373817       -0.3629685698
 C          0.3113724874        1.6658083234       -0.1116650886
 C         -0.9627130436        0.9429309517       -0.0738338273
 N         -2.0944939203        1.6292714659       -0.0414275928
 C         -3.2085376633        0.8937436487       -0.0501991819
 N         -4.4020910505        1.5492774399       -0.0702391342
 C         -5.6384790331        0.9993829983       -0.4249811439
 C         -5.9488524642       -0.2591067500       -0.9116228231
 C         -7.2733728442       -0.5303541287       -1.2112754610
 C         -8.2681501526        0.4262706705       -1.0454109454
 C         -7.9586877216        1.6942614666       -0.5909704276
 C         -6.6374301924        1.9843715797       -0.2848032042
 C         -5.9832446795        3.1843363437        0.1702026868
 C         -6.4563345294        4.4498282903        0.4840012602
 C         -5.5534490276        5.4053804239        0.9099215494
 C         -4.2024518231        5.1011521696        1.0319866779
 C         -3.7118670635        3.8432584929        0.7247733987
 C         -4.6097129916        2.8873604344        0.2812901034
 N         -3.2315683867       -0.4376561940       -0.0396097074
 C         -2.0422436709       -1.0312021394       -0.0488067867
 N         -1.9873132155       -2.3932982218       -0.0080375824
 C         -2.9959085690       -3.2515394125        0.4372005856
 C         -4.2603692977       -2.9636316197        0.9217229393
 C         -5.0564016255       -4.0231000683        1.3230309890
 C         -4.6071968092       -5.3372585397        1.2571844952
 C         -3.3355001206       -5.6270523617        0.8003400684
 C         -2.5233198832       -4.5794030762        0.3918837935
 C         -1.1719890005       -4.5274128455       -0.1043342520
 C         -0.2276486775       -5.5098496156       -0.3643988288
 C          1.0023825185       -5.1288868738       -0.8663197732
 C          1.2807654905       -3.7915635921       -1.1256364228
 C          0.3505686790       -2.7973536684       -0.8728113828
 C         -0.8723765733       -3.1696907818       -0.3391635019
 N         -0.8829700645       -0.3799319899       -0.0926338654
 C          1.4893071565        0.9475373672        0.0715514051
 C          2.7374910783        1.5449255582       -0.0347093084
 Si         4.2739109961        0.4300737779        0.0767570000
 C          4.2251619674       -0.7298149780       -1.4211243086
 C          5.0572541181       -1.8460634634       -1.4621876831
 C          5.0078541511       -2.7360500346       -2.5193977510
 C          4.1154062311       -2.5276889433       -3.5585358221
 C          3.2796948482       -1.4239551357       -3.5336976278
 C          3.3381971535       -0.5349243876       -2.4751632564
 C          5.8295853509        1.5031164777        0.1125554330
 C          5.9479245964        2.5414652531        1.0337481873
 C          7.0825970627        3.3305113659        1.0787949665
 C          8.1252373976        3.0934862727        0.1983476924
 C          8.0242267957        2.0658209213       -0.7241833780
 C          6.8863324613        1.2800575453       -0.7643009896
 C          4.1408081147       -0.6716145709        1.6156705736
 C          3.3165393991       -1.7952193435        1.5941071132
 C          3.1923329997       -2.6116570064        2.7027861832
 C          3.8986693451       -2.3222058209        3.8583593127
 C          4.7315279082       -1.2164999534        3.8939399243
 C          4.8493209678       -0.4010024026        2.7825525495
 C          2.7906035115        2.9060982264       -0.2968246202
 H         -0.5394997278        3.5947822567       -0.5092727947
 H         -5.1863264801       -1.0045183047       -1.0608582380
 H         -7.5343536334       -1.5088007691       -1.5859631106
 H         -9.2908172951        0.1769173121       -1.2858914406
 H         -8.7230721979        2.4481756278       -0.4804420795
 H         -7.5079767461        4.6768482340        0.3978187915
 H         -5.8984692846        6.3984353754        1.1560240142
 H         -3.5165618246        5.8618336391        1.3740716720
 H         -2.6650179052        3.6140963174        0.8284416026
 H         -4.6141129364       -1.9489095356        0.9902914922
 H         -6.0482653905       -3.8191323218        1.6975768045
 H         -5.2580464372       -6.1376382003        1.5759260531
 H         -2.9753088289       -6.6438830330        0.7638826258
 H         -0.4557628514       -6.5487054888       -0.1807123146
 H          1.7543203386       -5.8761886505       -1.0713090861
 H          2.2408551296       -3.5181570913       -1.5390780532
 H          0.5732840413       -1.7671928024       -1.0923137455
 H          1.4133851083       -0.1042455756        0.2936886179
 H          5.7459680688       -2.0199996348       -0.6472812080
 H          5.6607001433       -3.5971182411       -2.5318871632
 H          4.0687787590       -3.2251381567       -4.3820843445
 H          2.5790033321       -1.2585988580       -4.3392482314
 H          2.6805505680        0.3229019392       -2.4635217698
 H          5.1366921135        2.7355968934        1.7219417015
 H          7.1548427965        4.1325236844        1.7994055039
 H          9.0121474202        3.7090560009        0.2308338380
 H          8.8343495360        1.8781840337       -1.4140564707
 H          6.8116920913        0.4818296260       -1.4886470491
 H          2.7723135672       -2.0436641857        0.6943192227
 H          2.5448881015       -3.4758747912        2.6625170914
 H          3.8047529462       -2.9584850652        4.7262436105
 H          5.2908955235       -0.9898591797        4.7903304092
 H          5.5064294333        0.4560244093        2.8174956719
 H          3.7442704545        3.4038586812       -0.3959777162
