  94
       -157.66856698
 C          9.5663880695        1.9490253441       -1.2576751298
 C          9.7093999536        2.9931301419       -0.3555023659
 N          8.7962499563        3.2899655874        0.5536401255
 C          7.7026229422        2.5556546408        0.6054029676
 C          7.4489681859        1.4746226603       -0.2413856544
 C          6.2035507534        0.7062493193       -0.1327724153
 C          4.9953099754        1.3902990493       -0.0790717012
 C          3.7753377915        0.7215349369       -0.0316947771
 N          2.6090738998        1.3670192591        0.0059415346
 C          1.4588538736        0.7091287011        0.0406434073
 C          0.2161737128        1.4120791559        0.0777841746
 C          0.2237857463        2.8170620800        0.0527831600
 C         -0.9421884650        3.5319419135        0.0543006841
 C         -2.1669847306        2.8477915191        0.1019746087
 N         -3.3804594889        3.5772570179        0.0865389355
 C         -4.2593469042        3.4702072296       -0.9880161822
 C         -4.0072220623        2.6452693771       -2.0795626138
 C         -4.9084110154        2.5622316943       -3.1279898718
 C         -6.0719780170        3.3074240748       -3.1124488930
 C         -6.3275249873        4.1542877216       -2.0453371109
 C         -5.4318980360        4.2421036540       -0.9947271327
 O         -5.7389611211        5.1187025277        0.0125915912
 C         -4.8651730186        5.2093596090        1.0641944554
 C         -5.1922612369        6.0852876769        2.0835173314
 C         -4.3662340068        6.2075480904        3.1900533183
 C         -3.2226316118        5.4364136832        3.2780709412
 C         -2.8885630998        4.5582730157        2.2606009370
 C         -3.6901792063        4.4451961472        1.1293339577
 C         -2.1950983532        1.4709826605        0.1500360741
 C         -1.0161606311        0.7138399034        0.1257060650
 C         -1.0142211061       -0.7262986458        0.1267202273
 C         -2.1907498752       -1.4862477740        0.1631839091
 C         -2.1605714145       -2.8630652785        0.1107785844
 N         -3.3734956126       -3.5929922260        0.1033101098
 C         -4.2739840029       -3.4597842966       -0.9506629398
 C         -4.0373048188       -2.6197928819       -2.0343032418
 C         -4.9626551511       -2.5062837846       -3.0584079322
 C         -6.1355632931       -3.2362551329       -3.0270666530
 C         -6.3745924999       -4.1009702116       -1.9705581735
 C         -5.4542165583       -4.2197432705       -0.9445333610
 O         -5.7454841418       -5.1146527077        0.0511661453
 C         -4.8540132566       -5.2262107728        1.0858072905
 C         -5.1701118877       -6.1139917854        2.0983294051
 C         -4.3278865704       -6.2552848166        3.1902682491
 C         -3.1796231086       -5.4902864368        3.2709276760
 C         -2.8557044239       -4.6014563730        2.2593493855
 C         -3.6730263888       -4.4703176208        1.1413218122
 C         -0.9349270133       -3.5443508878        0.0481520049
 C          0.2294625881       -2.8266942902        0.0399270102
 C          0.2193389958       -1.4218251140        0.0698307109
 C          1.4603474339       -0.7159112030        0.0324021709
 N          2.6118567578       -1.3708741854       -0.0138967077
 C          3.7766886873       -0.7223359222       -0.0436319185
 C          4.9985461938       -1.3877608124       -0.0876402311
 C          6.2057526952       -0.7005474682       -0.1224989298
 C          7.4574624448       -1.4659607196       -0.1065890712
 C          8.4960718608       -1.1682768691        0.7757257588
 C          9.6469619526       -1.9344444170        0.7467454528
 C          9.7221373802       -2.9819442375       -0.1598572237
 N          8.7430445785       -3.2822397516       -0.9963191403
 C          7.6478757373       -2.5489880420       -0.9673879690
 C          8.4175358835        1.1813479551       -1.2012732884
 H         10.3320095454        1.7459189185       -1.9905899587
 H         10.5884634179        3.6239142176       -0.3591555405
 H          6.9909098632        2.8274989922        1.3749845920
 H          4.9825283749        2.4693107677       -0.1008733226
 H          1.1819613465        3.3116206325        0.0141336116
 H         -0.9367197511        4.6106024910        0.0119706996
 H         -3.0947848993        2.0714031971       -2.1122043549
 H         -4.6893969490        1.9112879584       -3.9601459766
 H         -6.7762493024        3.2433120646       -3.9265530342
 H         -7.2168543404        4.7628193988       -2.0100452963
 H         -6.0998964850        6.6600276238        1.9926670530
 H         -4.6258047866        6.8957792224        3.9786018633
 H         -2.5811967718        5.5100962731        4.1424734628
 H         -2.0013071139        3.9509406583        2.3441285202
 H         -3.1577968748        0.9865736577        0.1989700897
 H         -3.1537401718       -1.0041567129        0.2266496866
 H         -3.1183046560       -2.0575900170       -2.0802840040
 H         -4.7558333921       -1.8426964381       -3.8836264238
 H         -6.8599965061       -3.1463404089       -3.8207776220
 H         -7.2702902527       -4.6994187130       -1.9242304583
 H         -6.0824695536       -6.6822489213        2.0137065362
 H         -4.5788496423       -6.9526522790        3.9734746900
 H         -2.5257389459       -5.5778576127        4.1247409124
 H         -1.9639591451       -3.9998456816        2.3379043876
 H         -0.9270346723       -4.6227713524        0.0008061970
 H          1.1885053420       -3.3188776370       -0.0073435028
 H          4.9904769368       -2.4668090653       -0.0647135556
 H          8.3920163892       -0.3570729090        1.4824385113
 H         10.4659957708       -1.7280014740        1.4184523156
 H         10.5997943246       -3.6117952371       -0.2210012835
 H          6.8802908682       -2.8233978517       -1.6803402584
 H          8.2606924916        0.3721315409       -1.9003815889
