  80
       -123.05864463
 C          7.9509465364        2.2433848727       -1.9142430102
 C          8.2053307973        1.4485152825       -0.8076507194
 C          7.1832165610        0.7446244789       -0.2024832710
 C          5.8831125110        0.8238401093       -0.7042429215
 N          4.8428736797        0.1183016692       -0.0938702401
 C          5.0788958190       -1.1565793815        0.4255561209
 C          5.9451750711       -2.0366200713       -0.2260211089
 C          6.1762267553       -3.2954036201        0.2924967216
 C          5.5476709379       -3.7005483256        1.4591501233
 C          4.6847587709       -2.8318667837        2.1087175591
 C          4.4512354016       -1.5688979578        1.6024304067
 C          3.5732431885        0.6903090407        0.0050283702
 C          3.4528849020        2.0792909969        0.2223105191
 C          2.2143249991        2.6779616289        0.3334107640
 C          1.0802908002        1.8927829983        0.2266917829
 C          1.1844377748        0.4615851661        0.0023513846
 C          2.4393363940       -0.1132019800       -0.1065044859
 C         -0.1514843709       -0.0676947092       -0.0462478306
 C         -0.8749492078       -1.2631078051       -0.2045295630
 C         -2.2771747896       -1.1877792912       -0.1407335847
 N         -2.9999900122       -2.3830124892       -0.2877685373
 C         -2.5333587040       -3.5550296672        0.3039906483
 C         -1.8806005373       -3.5096874377        1.5381509893
 C         -1.4159120765       -4.6711261140        2.1216840973
 C         -1.5950062588       -5.8937383935        1.4934436791
 C         -2.2419033077       -5.9453626834        0.2689080998
 C         -2.7061978016       -4.7892707366       -0.3265788513
 C         -4.1891015282       -2.3880297368       -1.0146814691
 C         -5.2598330395       -3.1958765566       -0.6252689035
 C         -6.4361604922       -3.1870745182       -1.3482366916
 C         -6.5699627461       -2.3736286566       -2.4624092845
 C         -5.5125277376       -1.5662009551       -2.8512306169
 C         -4.3296365476       -1.5716050478       -2.1396740022
 C         -3.0246016378       -0.0068459065        0.0641799995
 C         -2.3305437652        1.2061585792        0.2103506387
 C         -2.5015006219        2.6132427147        0.4259745608
 C         -3.6412101326        3.4382365462        0.5689995320
 C         -4.9528939146        2.9437738440        0.5159336769
 C         -6.0369659320        3.7856481725        0.6678201618
 C         -5.8385083311        5.1455104131        0.8757900617
 C         -4.5578791221        5.6611884829        0.9281906362
 C         -3.4339444874        4.8357349443        0.7766554117
 C         -2.1214146186        5.3697654852        0.8268997598
 C         -1.0052401395        4.5723539077        0.6773103902
 C         -1.1839976756        3.2155692583        0.4791310553
 N         -0.2526066705        2.2114626439        0.3023349237
 C         -0.9484714532        1.0508010187        0.1434285633
 C          5.6329899016        1.6230317600       -1.8214142932
 C          6.6616938640        2.3265976088       -2.4157186810
 H          8.7520133099        2.7949388079       -2.3818035227
 H          9.2060832524        1.3829220737       -0.4071364677
 H          7.3793171166        0.1384871616        0.6696454720
 H          6.4252944851       -1.7272221798       -1.1426675095
 H          6.8452632067       -3.9680237777       -0.2232010019
 H          5.7292047123       -4.6860175836        1.8595753737
 H          4.1965745426       -3.1366878747        3.0224335978
 H          3.7889085398       -0.8876640255        2.1153353301
 H          4.3485564996        2.6715749528        0.3245018235
 H          2.1383322207        3.7388422627        0.5157379701
 H          2.5403246589       -1.1722529227       -0.2914225716
 H         -0.3940494531       -2.2101581153       -0.3891627376
 H         -1.7527446253       -2.5583365321        2.0321592580
 H         -0.9171030817       -4.6227499999        3.0781155794
 H         -1.2326224182       -6.7997058525        1.9544290856
 H         -2.3786883411       -6.8926867148       -0.2310861798
 H         -3.1952399285       -4.8299067798       -1.2887435902
 H         -5.1654297694       -3.8151391198        0.2546124233
 H         -7.2582261298       -3.8124061468       -1.0331046912
 H         -7.4924298886       -2.3676339223       -3.0223647746
 H         -5.6072495346       -0.9321470947       -3.7200683133
 H         -3.5021986108       -0.9502542401       -2.4473336786
 H         -4.0974249043       -0.0787925117        0.1318300710
 H         -5.1077410140        1.8897370716        0.3503406054
 H         -7.0401772543        3.3869951115        0.6242174555
 H         -6.6886319128        5.8020003630        0.9941840085
 H         -4.4079387002        6.7196425878        1.0882061289
 H         -2.0063760278        6.4316457338        0.9836627815
 H         -0.0140022689        4.9990036298        0.7126998459
 H          4.6303512868        1.6778963635       -2.2184192025
 H          6.4565266813        2.9390504136       -3.2811607468
