  61
        -90.84327251
 C          4.4770316230        1.7775466237       -1.9049719910
 C          3.6942969422        0.9327437733       -0.9522040304
 C          2.3153108249        0.9543192447       -0.9532286377
 C          1.5864886988        0.1710977445       -0.0526983707
 N          0.1692368464        0.2017497677       -0.0614037869
 C         -0.4781359973        0.7487573055        1.0164886587
 C          0.2556187347        1.3952125546        2.0398406850
 C         -0.3740731943        1.9040673947        3.1403743979
 C         -1.7696519371        1.7997987312        3.2665279830
 C         -2.5051976279        1.2075874752        2.2514842731
 C         -1.9033955811        0.6984309537        1.1178962304
 C         -2.7212443246        0.0654619050        0.0271198214
 C         -3.9307143725        0.9514276371       -0.2057892495
 C         -3.7991387117        2.0624670183       -1.0314252719
 C         -4.8612681856        2.9241450687       -1.2295551128
 C         -6.0726234446        2.6934825259       -0.5972240024
 C         -6.2063014317        1.6016239898        0.2419713604
 C         -5.1427392509        0.7385291159        0.4418437151
 C         -3.0648947766       -1.3833722594        0.3854267039
 C         -4.1483162916       -2.0317215820       -0.2102295698
 C         -4.4227819137       -3.3531498308        0.0766665415
 C         -3.6127936389       -4.0683213704        0.9461548470
 C         -2.5243013388       -3.4374002805        1.5289991522
 C         -2.2513419650       -2.1128387804        1.2525087516
 C         -1.9304739909       -0.1728382648       -1.2265205544
 C         -2.5478434161       -0.4582330049       -2.4356835916
 C         -1.8342552173       -0.9020448872       -3.5275511422
 C         -0.4426224179       -1.1452312080       -3.4076641594
 C          0.2051817691       -0.8423421783       -2.2455614280
 C         -0.4917515998       -0.2764820285       -1.1553890052
 C          2.2569209773       -0.6509816661        0.8605532740
 C          3.6350369294       -0.7048069952        0.8818064103
 C          4.3543333442       -1.5901431036        1.8477168134
 C          4.3400206920        0.0946974855       -0.0294911192
 Br         6.2456828212        0.0421537680       -0.0156001631
 H          5.1292632919        2.4615329033       -1.3616292799
 H          3.8126576717        2.3570061557       -2.5402749733
 H          5.1102625163        1.1533408795       -2.5357925162
 H          1.7843782060        1.5913496988       -1.6449295663
 H          1.3253085349        1.4910228757        1.9380872132
 H          0.1996118609        2.3937786838        3.9120017275
 H         -2.2668382468        2.1970804328        4.1365252657
 H         -3.5787678181        1.1520403824        2.3455599232
 H         -2.8552861592        2.2491382759       -1.5241511416
 H         -4.7432518813        3.7796795333       -1.8782796758
 H         -6.9043883244        3.3638983946       -0.7543125158
 H         -7.1432518005        1.4191851478        0.7481462311
 H         -5.2604325068       -0.1076239648        1.1035819531
 H         -4.7847660138       -1.4986128464       -0.8995938826
 H         -5.2726503632       -3.8323802615       -0.3872999712
 H         -3.8252963507       -5.1038849502        1.1637123102
 H         -1.8841867244       -3.9819030085        2.2081091194
 H         -1.4056428948       -1.6385031146        1.7283046304
 H         -3.6165633898       -0.3279135334       -2.5192192275
 H         -2.3327960108       -1.0975579853       -4.4632327704
 H          0.0974695969       -1.5715481351       -4.2379127491
 H          1.2641505750       -1.0279580746       -2.1523254197
 H          1.6815414802       -1.2563756622        1.5445448954
 H          5.0131694847       -1.0014568940        2.4861546163
 H          4.9738082006       -2.3114373256        1.3146980445
 H          3.6492991314       -2.1293213474        2.4744661545
