  67
       -114.27169121
 C          5.6797774304       -4.8007570648        0.5141682040
 O          4.3655506213       -4.5754283157        0.0590111266
 C          3.9252050125       -3.2970928999       -0.0609921462
 C          2.6071519312       -3.1628639919       -0.5332580095
 C          2.0206774356       -1.9307443107       -0.7022948082
 C          2.7587973510       -0.7981749343       -0.3802418586
 C          4.1015144102       -0.9212187970        0.0509819794
 C          4.6848134551       -2.1672890156        0.2222723922
 C          4.6102782645        0.4157622088        0.1866669274
 C          5.8349842277        0.9332701519        0.5612004925
 C          6.0081391725        2.3196991000        0.5758007131
 O          7.2422771147        2.7451595929        0.9517376512
 C          7.5119586167        4.1273221168        0.9872910429
 C          4.9516002671        3.1671832328        0.2203799509
 C          3.7214076055        2.6587065701       -0.1544383960
 C          3.5514372146        1.2847575948       -0.1774406029
 N          2.4320008230        0.5372942419       -0.4902202405
 C          1.1989214954        1.0726527703       -0.8250512741
 N          1.1845886691        2.1557951512       -1.5550961878
 C          0.0110491674        2.7043047178       -1.8789443475
 N         -1.1772965883        2.1826042692       -1.5652665761
 C         -1.2253960375        1.1022611647       -0.8323511192
 N         -2.4744557711        0.6032471877       -0.5023343011
 C         -3.5779300447        1.3836091618       -0.2160776658
 C         -3.7168330211        2.7662168059       -0.2297174839
 C         -4.9344837381        3.2978682292        0.1269017388
 C         -6.0183824436        2.4820642529        0.5015047555
 O         -7.1545756434        3.1497384956        0.8251446605
 C         -8.2890764978        2.4124047629        1.2175344176
 C         -5.8808027635        1.0978566509        0.5232118043
 C         -4.6568998481        0.5529149387        0.1650360624
 C         -4.1820200866       -0.8003402734        0.0727907478
 C         -4.7793053365       -2.0270138531        0.2828892042
 C         -4.0401528031       -3.1892424641        0.0490540472
 O         -4.6948860670       -4.3539694079        0.2909128510
 C         -4.0104149368       -5.5733821684        0.1204186609
 C         -2.7269279275       -3.1023871446       -0.4268032421
 C         -2.1228088849       -1.8779244553       -0.6404946957
 C         -2.8321791894       -0.7223618317       -0.3573563237
 C         -0.0224200485        0.4757797364       -0.3030739181
 C         -0.0304113781       -0.3256377367        0.8122161526
 N         -0.0341747263       -1.0123723764        1.7519227536
 H          6.4190348116       -4.3679969506       -0.1674079478
 H          5.8298790418       -4.3968598684        1.5202084969
 H          5.8003277389       -5.8823258897        0.5375650936
 H          2.0674802286       -4.0661007566       -0.7667350683
 H          1.0186792744       -1.8558388121       -1.0872642897
 H          5.7059708932       -2.2344657370        0.5592111278
 H          6.6603178283        0.3001249794        0.8430417715
 H          8.5477156976        4.2140531756        1.3109162163
 H          6.8649643881        4.6448162638        1.7022909098
 H          7.4018428454        4.5830746997       -0.0015738254
 H          5.0835590834        4.2366795255        0.2336054511
 H          2.9148546871        3.3150120651       -0.4368511944
 H          0.0234738962        3.5947630153       -2.4832962091
 H         -2.8946703357        3.3964918235       -0.5244651826
 H         -5.0908913793        4.3643663657        0.1281291798
 H         -8.6306453221        1.7472114091        0.4182495069
 H         -8.0934319561        1.8266016743        2.1211566837
 H         -9.0606912057        3.1510606512        1.4266375714
 H         -6.6902077976        0.4465989612        0.8088812664
 H         -5.7995206082       -2.1143624647        0.6187739857
 H         -3.7216056618       -5.7289146903       -0.9239360344
 H         -3.1220300608       -5.6265239245        0.7570132029
 H         -4.7153644197       -6.3477317541        0.4176931348
 H         -2.1644569369       -3.9961332202       -0.6396471909
 H         -1.1197073298       -1.8404238878       -1.0282466171
