111
 energy: -157.769881037015 gnorm: 0.000064987332 xtb: 6.7.1 (edcfbbe)
C            2.84020293819682       -2.98634030673739       -2.73676619281236
C            1.36964993760006       -3.33998681615095       -2.49776445578746
C            0.78652743651060       -3.89771933916620       -3.80626407838464
C            1.31477475582449       -4.41641911596055       -1.40517436511839
C            0.53596077036483       -2.14177570759391       -2.07401673689795
C            1.06313445168159       -0.84892002869219       -2.01727126545249
C            0.29381473547158        0.25301898487601       -1.69137557397144
C           -1.04771512095252        0.05639333887226       -1.40480485021517
C           -1.59610145557290       -1.24576364532277       -1.40818907346057
C           -0.80874042737924       -2.32812857531168       -1.75398472121377
C           -2.97628295956888       -1.10289112025000       -1.01551663909493
C           -4.00943864156562       -2.00840544522163       -0.83835140549050
C           -5.27009103244366       -1.55515436640343       -0.46131691834518
C           -6.44600397515297       -2.49468888582671       -0.24763137972392
C           -6.96243547884634       -2.33505839125335        1.19067662264731
C           -6.07264843445576       -3.96493158571835       -0.45915754610550
C           -7.56052785903941       -2.13563141433527       -1.24257697927929
C           -5.46179481108074       -0.17744038534875       -0.28709353149273
C           -4.45100891629237        0.74730948499266       -0.45733408745456
C           -3.19092607179933        0.27841506756923       -0.80389483486745
N           -2.01961513096925        0.96793069058765       -1.04042959267008
C           -1.80219820434410        2.33488215173356       -0.90760083207849
C           -2.23535667374132        3.06201459298783        0.23139812715162
C           -1.85727265499742        4.36805787312441        0.36574206388832
C           -1.04313415039613        4.94819643717523       -0.62909602519618
S            0.13750967662088        6.15167092626237       -0.05894427480970
O           -0.44405651196714        6.93586795131294        1.01200274768323
O            0.75836296272226        6.88979405950263       -1.14059512341539
C            1.25560600913710        4.89815199929708        0.52890536026379
C            2.04222704347444        4.26577812896113       -0.45581924138270
C            2.36072322553252        2.94620885517110       -0.30033265655583
C            1.89428582294751        2.25772940736550        0.84944158413732
N            2.05190475564672        0.88497086315571        1.00505226950904
C            3.19319297415134        0.14221436416561        0.78318876878718
C            4.47263905096215        0.55071341052421        0.43111971879379
C            5.44380392153699       -0.41893659174798        0.28115420987617
C            5.19386521457440       -1.78372611726949        0.48134052878571
C            6.32992637011291       -2.77587341551157        0.29123893504355
C            7.45485320845826       -2.44333769364304        1.28371579227323
C            5.89476267444857       -4.22468279924749        0.53086324681918
C            6.85757024080143       -2.66727565796786       -1.14773060312277
C            3.91433044455880       -2.17611036051616        0.86265048964217
C            2.91989725527583       -1.22462539251992        1.01948588905762
C            1.53437300737735       -1.30166469981220        1.41149822964617
C            0.70154105701915       -2.34347773381263        1.77477394136834
C           -0.63450580528249       -2.09492490110602        2.08864891061376
C           -1.51884703255826       -3.24993583208017        2.52946259720692
C           -0.96150646121010       -3.81273370710278        3.84697683333660
C           -2.97319266454759       -2.83047821986886        2.76079835042438
C           -1.50874888075546       -4.34356501761799        1.45270714577425
C           -1.10629937416754       -0.78204299950951        2.00869059738933
C           -0.29063379283711        0.28042532072885        1.66462417569164
C            1.04167286917775        0.02225369131117        1.38380526197094
C            1.23391785944675        3.01247101973878        1.82588038578559
N            0.91612491351862        4.27271534354451        1.66751849863518
N           -0.73639564916016        4.29066072929475       -1.75890408623560
C           -1.11164063010409        3.04406861109551       -1.89740401729487
H            3.38285739941845       -3.88501699372098       -3.02389723770414
H            3.29571268889918       -2.58619965180011       -1.83324028087177
H            2.94818049232439       -2.26413141393961       -3.54283968786458
H            1.37099721517858       -4.75221651415644       -4.14044782772169
H           -0.24355616626295       -4.21780051977527       -3.67595261646254
H            0.81127900020221       -3.13783848130620       -4.58498721645058
H            1.94283300197721       -5.25986799090903       -1.68382491849579
H            0.30426776483100       -4.78345082667906       -1.25580389756482
H            1.67658249268922       -4.00243829334855       -0.46815901708255
H            2.10446919465733       -0.68335029936688       -2.23515010957940
H            0.72951838924840        1.24006231134462       -1.65660623053108
H           -1.24796895344516       -3.31214065466504       -1.78176912594633
H           -3.81924699028306       -3.05507997549619       -1.00362835958054
H           -6.17217288164858       -2.56405247170334        1.90212449685801
H           -7.79209651963469       -3.01662991708561        1.36510590104380
H           -7.31035861478366       -1.32359478977391        1.38059317891072
H           -5.29418151153939       -4.27408787894551        0.23352288723442
H           -5.73991042849838       -4.14248954444104       -1.47921756442146
H           -6.94688075868398       -4.58751179146474       -0.28055221656397
H           -7.92027979941798       -1.12173965453218       -1.09075702740395
H           -7.19559686519794       -2.21837377979819       -2.26457273107763
H           -8.40073205077415       -2.81576837123023       -1.12038059639708
H           -6.43868741998672        0.19084611328024       -0.01611962298001
H           -4.64464399031494        1.80248156324834       -0.33946359161636
H           -2.81809005192817        2.56809908384770        0.99423821809572
H           -2.10548796971448        4.96572419960052        1.22724298022535
H            2.31739073775910        4.83771996645738       -1.32654269963966
H            2.92132000813904        2.41437552532467       -1.05418382522358
H            4.71126302467335        1.59427269536861        0.29405784320564
H            6.43581379903713       -0.09722849428471        0.00577187826062
H            7.08376420679530       -2.49318346685245        2.30563387576237
H            7.85473701119859       -1.44728539387773        1.11526448990575
H            8.26811887924615       -3.15796241393299        1.17697862961795
H            6.74329849049907       -4.88643732551911        0.37002949495785
H            5.54988225746375       -4.36724998456329        1.55238391941856
H            5.10757447534096       -4.51577227475695       -0.15975388995453
H            6.06232515441867       -2.88277787123662       -1.85786701809516
H            7.66256923639292       -3.38226587065838       -1.30302078719931
H            7.24307744998556       -1.67367995378508       -1.35818295361884
H            3.68012576928677       -3.21054503246247        1.04705924807515
H            1.09886021881619       -3.34447458007496        1.82072999527321
H            0.05418874524733       -4.17816141866687        3.72335119852445
H           -1.58214569574982       -4.63665178590291        4.19256018100631
H           -0.95491653427010       -3.04109878258868        4.61442912214476
H           -3.55415339440950       -3.70100603108412        3.05957613889890
H           -3.05103270544538       -2.09278673505090        3.55630250026082
H           -3.41000799795719       -2.42420928952905        1.85080752424824
H           -0.51440763791792       -4.75457350920996        1.30962084578079
H           -2.17150985427637       -5.15603942879141        1.74279664052623
H           -1.85251723424128       -3.92843766667454        0.50941449841165
H           -2.13983516869094       -0.56850928162390        2.22214276651685
H           -0.68415866664396        1.28425466543823        1.61162907462930
H            0.96628198189170        2.57113384819102        2.77723286546679
H           -0.86747581176681        2.57664007972680       -2.84258563761239
