102
 energy: -170.278199296562 gnorm: 0.000072942231 xtb: 6.7.1 (edcfbbe)
C           10.92146987823813       -3.02718663657893       -1.81614755869671
C            9.57418841747746       -3.24764723552516       -1.61108049976307
C            8.77553638272069       -2.25516045072393       -1.06327303327113
C            9.31361210800188       -1.02660501344646       -0.69827197426883
C           10.67423161524233       -0.80078855322632       -0.94661290169216
C           11.46756128763647       -1.79421470549362       -1.49092627983011
O           11.28279972102273        0.40446352174436       -0.68602416958049
C           10.50505011852355        1.40201196090257       -0.14680064902268
C           11.13332248323292        2.60362653643720        0.12532618069467
C           10.42691136373681        3.64814523594537        0.70337427956966
C            9.09588180323064        3.47137437949831        1.02414476088073
C            8.46153983254101        2.26891815273573        0.75102519868031
C            9.14480786363938        1.22428658779140        0.13945003367537
N            8.53663747787945       -0.00273001493660       -0.14646184032806
C            7.16924661344881       -0.20450791516672        0.12619601261767
C            6.77012540746740       -1.18528472067334        1.03463480378915
C            5.43214378999665       -1.37965945050871        1.30323656294462
C            4.46574588514601       -0.59359697471603        0.67204681810017
C            3.05202153025246       -0.79483731886864        0.95696555838266
N            2.70717782270836       -1.70591501191310        1.86527895235898
N            1.45934203792576       -2.05208758342886        1.97137197033898
C            0.52989816066385       -1.43623132390035        1.26953112439260
C           -0.87132896736661       -1.86609060348287        1.24289496012657
C           -1.66163675163110       -1.89036048092322        2.38701546599257
C           -3.03221426445728       -2.04247417601831        2.27979442782359
C           -3.62692751565776       -2.19301971571901        1.03053722909870
N           -5.03419689415436       -2.19903657369964        0.89965365738269
C           -5.68513571828266       -3.27615900839546        0.29345962176811
C           -5.04091878581325       -4.48420182688792        0.05594336614573
C           -5.71319583911306       -5.54315711166983       -0.53570311374824
C           -7.04128590245554       -5.41490219955075       -0.89021899879430
C           -7.70669728582057       -4.22467529902442       -0.63227620291938
C           -7.04146872130379       -3.16785075158245       -0.03882132273871
O           -7.77448894381574       -2.03223953972423        0.21643639692331
C           -7.11101803797772       -0.96556018097841        0.77247350783026
C           -7.84710691970240        0.18588836664203        0.98067839131656
C           -7.24659748499497        1.31747702595784        1.51186327202059
C           -5.90225722158330        1.28780740391455        1.81999171524036
C           -5.16150658729351        0.13286612843444        1.61827458819436
C           -5.75173916081696       -1.01572016130284        1.10774439454697
C           -2.82282217162692       -2.29079068429433       -0.10215010263944
C           -1.46098641870316       -2.11266227262926        0.00306468155483
C            0.89017728234241       -0.25954239492485        0.54656436954994
C           -0.19468252611908        0.63118983633673        0.11206323989469
C           -1.05257442464936        1.14519250862735        1.08392009097867
C           -2.21497599290264        1.78896058213072        0.72079831032862
C           -2.56005253260414        1.89789229363374       -0.62403498380389
N           -3.82760094346330        2.40568612896703       -0.98709734702200
C           -4.80055144361991        1.53927676538662       -1.49831077409700
C           -4.51819579643782        0.22466556835930       -1.84462586294268
C           -5.50298298503058       -0.60629355150936       -2.35745852438077
C           -6.78936475867317       -0.13909031046541       -2.53083686614421
C           -7.09372427848007        1.16466516594566       -2.16904988867483
C           -6.11654560853610        1.99429950360272       -1.65147142863906
O           -6.50687658259907        3.26131810703133       -1.29159540298987
C           -5.55059710407857        4.08557884688804       -0.74568289863603
C           -5.95496929259030        5.35208990170331       -0.36590356786068
C           -5.03888009198667        6.25084334320864        0.16224988477295
C           -3.71616310350767        5.87745512375551        0.29247612449998
C           -3.30709870121410        4.60648908967396       -0.08258090190934
C           -4.21779247538292        3.68589500354097       -0.58641639935470
C           -1.66467805336961        1.46369851638596       -1.59665705527772
C           -0.48312203667298        0.84375778199837       -1.23103941761080
N            2.15975101213469       -0.00196830929480        0.34245634521255
C            4.86758565404516        0.38620561037416       -0.23785685036584
C            6.20532673687185        0.57830701403257       -0.50908398210467
H           11.54883570311193       -3.79730920350346       -2.23654429222897
H            9.12870912887997       -4.19343682145178       -1.87878327994732
H            7.72143052436967       -2.43683753763720       -0.92584498958341
H           12.51141347882923       -1.57890087605020       -1.65721525456789
H           12.17991348977339        2.69848247448046       -0.11825771886348
H           10.92456217142035        4.58275897806644        0.90867615139892
H            8.53706775092170        4.26596913845651        1.49430622775081
H            7.42641896087394        2.14033460436467        1.02482063029103
H            7.51860631235076       -1.78449295711132        1.53144969870900
H            5.11317392478185       -2.13006494268577        2.00940555024712
H           -1.20308007423173       -1.74804767436588        3.35391456903485
H           -3.65208351694795       -2.01744307124035        3.16355055087348
H           -4.00699511906301       -4.59807712000675        0.34263625267105
H           -5.18753727474851       -6.46897686001129       -0.71241615462437
H           -7.56879251700744       -6.23276139275056       -1.35524036149880
H           -8.74863938977633       -4.09787336594195       -0.88114312253046
H           -8.89141365802075        0.17857834925089        0.71140738694329
H           -7.82887561142617        2.21172707863964        1.66891410196403
H           -5.41907303943033        2.16645118278822        2.22120630976406
H           -4.10923084271911        0.12462131156883        1.85180573077652
H           -3.27690892679095       -2.47063607693171       -1.06424281644292
H           -0.84586714093006       -2.14419568099737       -0.88465113197335
H           -0.81087097541048        1.02173455240810        2.12963922488015
H           -2.88009406083082        2.17999160645354        1.47492810061243
H           -3.51933877930290       -0.15437190166623       -1.70157364245487
H           -5.25603215749405       -1.62406540928795       -2.62127657876983
H           -7.55921191323570       -0.77906659333787       -2.93221184873956
H           -8.09265802581454        1.55753485373978       -2.27340810583286
H           -6.99219745148188        5.61801681713782       -0.49617119706355
H           -5.36460100017346        7.23611269900095        0.45642398814682
H           -2.98870596931558        6.57163074811479        0.68435399747704
H           -2.26892351953705        4.32778646518673        0.01055055358914
H           -1.90985048069239        1.59146333585360       -2.64035040207614
H            0.19896002954177        0.48570918926698       -1.98770569220800
H            4.11591702714656        0.98599207851542       -0.72715154994164
H            6.51545230591515        1.33063770718811       -1.21908379980222
