102
 energy: -170.283761710797 gnorm: 0.000065344821 xtb: 6.7.1 (edcfbbe)
C            9.93548507653113       -3.59507156334654       -2.74511996793107
C            8.56794489188730       -3.65426296721337       -2.56709213129597
C            7.93274050340862       -2.76869851031981       -1.70940871595127
C            8.65759792817959       -1.81468092912039       -1.00512123765164
C           10.04096957451210       -1.74323494209890       -1.21768087539356
C           10.67022423231219       -2.62884796785389       -2.07292623399640
O           10.83275109146415       -0.79473280682314       -0.61280374663037
C           10.21555833446205        0.10009652389231        0.23044460958269
C           11.02264719254298        1.04470417663045        0.83715444420878
C           10.48074192994215        1.96189657465479        1.72616722555010
C            9.13153532356313        1.91315254930289        2.01365829338975
C            8.31772426019994        0.96919045687945        1.40536987091029
C            8.83870168056372        0.06330828198334        0.48914491692737
N            8.04787521741952       -0.90248748799255       -0.13964385704187
C            6.65960278520335       -0.96341020753977        0.10551182019327
C            6.10528533592537       -2.08352095008351        0.72326193997784
C            4.74916633668471       -2.14147065162117        0.96585159901729
C            3.92218248076305       -1.07927941631464        0.59664122006614
C            2.49168783539130       -1.13857447256057        0.85965175601427
N            2.01275517919291       -2.13242747235894        1.62074361080007
N            0.74206216447722       -2.34925031073651        1.58829954825005
C           -0.10545959485426       -1.53885565572957        0.97330116771605
C           -1.47943867358830       -1.98826025544854        0.79851388758458
C           -2.04801112404932       -2.86940955433711        1.72017323274299
C           -3.35186513132630       -3.29347727993755        1.57087034449597
C           -4.11028802210391       -2.85739608945270        0.48628088521790
N           -5.44957211067845       -3.27643995283172        0.33672720358536
C           -5.75686307902549       -4.62392933896968        0.13127919064757
C           -4.77462546321451       -5.59968481365063        0.01226462262263
C           -5.11377219788478       -6.92872307056340       -0.19252744782513
C           -6.43843439226188       -7.30427753164600       -0.29067911407497
C           -7.43040068916210       -6.33760984280706       -0.20610139053175
C           -7.09686735597075       -5.01104048100862       -0.00547544852571
O           -8.13438281227235       -4.10784013225551        0.03287459785200
C           -7.81356675637224       -2.78441136880266        0.22841957505755
C           -8.86359385607617       -1.88605100473945        0.27524191858541
C           -8.62342107315234       -0.53832676525181        0.50271708761408
C           -7.32883287872578       -0.10279492226846        0.70187011865704
C           -6.27272507944328       -1.00021144114330        0.65145379215261
C           -6.49214180172726       -2.34769777204635        0.39230635371191
C           -3.53653315856128       -2.00323022371029       -0.45355758904872
C           -2.23573269345681       -1.57232569082661       -0.29902396258341
C            0.40057880986115       -0.26838654415170        0.56399537326697
C           -0.41819030472728        0.92065715255570        0.36296642333845
C           -1.58415749400698        1.13571093829678        1.10010974125086
C           -2.34647650494084        2.26405140955507        0.88411663479533
C           -1.96629102763463        3.19815904141963       -0.07888709133524
N           -2.75968105506110        4.33858349635394       -0.31483237639147
C           -4.06953856396395        4.21041468603264       -0.78844747448302
C           -4.64213953547586        2.97591448013153       -1.07047629416391
C           -5.94256590513401        2.88372594446299       -1.54322774433074
C           -6.69053121740809        4.02475317794954       -1.75332356221514
C           -6.12340871097486        5.26712437576016       -1.50900515267571
C           -4.82596793900945        5.36297190621348       -1.04000655061002
O           -4.32446238630488        6.63053949789652       -0.85743477847187
C           -3.03548198949911        6.73947126173832       -0.39046512043929
C           -2.54877774860409        8.01863935520450       -0.19278510796607
C           -1.26986563387114        8.21165615395131        0.30905157108282
C           -0.49364227700421        7.11601207446247        0.62954780689176
C           -0.97687038728103        5.83158862209040        0.43059176784564
C           -2.24210386482836        5.62049439541113       -0.10436394211591
C           -0.79263404823198        2.99613130297560       -0.80340156759085
C           -0.02344409402175        1.87477570072271       -0.57668295590983
N            1.70882515158429       -0.16061718869033        0.41407440435321
C            4.47994177862823        0.03943858562647       -0.02409576335091
C            5.83591746845368        0.09766417371664       -0.26708161562877
H           10.43564786810591       -4.28334878458263       -3.40807751092967
H            7.97951978353044       -4.38786045618492       -3.09654351193877
H            6.86167409634042       -2.81636912808265       -1.59145781965059
H           11.73764096717969       -2.54193607611079       -2.20273043749491
H           12.07594061780124        1.04153263533237        0.60411914843047
H           11.11799011680873        2.69664489803835        2.19252745231803
H            8.69771852714921        2.60654600930500        2.71776976712856
H            7.26830011016147        0.93240995694384        1.65168449306480
H            6.74770915762977       -2.90119774122311        1.01475775023495
H            4.31063742640458       -2.99991394426137        1.45024809250753
H           -1.45498013532503       -3.19798620774266        2.55952798994807
H           -3.79483489971211       -3.95983991915300        2.29602883996468
H           -3.73525342875783       -5.31802799343922        0.07317882798787
H           -4.32940810595415       -7.66528227849389       -0.27610110342334
H           -6.70900837077054       -8.33709822470017       -0.44385612943107
H           -8.47440798059885       -6.59314518060006       -0.29878291200741
H           -9.86462504316851       -2.26353956657710        0.13675033282174
H           -9.44883868737724        0.15521695703049        0.53429825123424
H           -7.12734317383742        0.93897256840227        0.89855713495576
H           -5.26718570584782       -0.65141759455647        0.82280872814122
H           -4.11721239838199       -1.68547446054902       -1.30680509598009
H           -1.79334969125273       -0.92628329924500       -1.04302704885644
H           -1.87629542263847        0.42935136414050        1.86285923089000
H           -3.23899451877376        2.43582725926822        1.46692242556136
H           -4.06340730201692        2.07761645104663       -0.92824611690481
H           -6.36217927311218        1.91032456687955       -1.74568012621650
H           -7.70407507233475        3.96017506529869       -2.11632644963603
H           -6.67114013304300        6.18004314849819       -1.68296690591158
H           -3.19068509765154        8.85134753494203       -0.43401151072346
H           -0.89749805772945        9.21318150495597        0.45610535081304
H            0.49510882840937        7.24852599838002        1.04118348685269
H           -0.36563730494511        4.98534135839177        0.70163946433272
H           -0.49443729765271        3.72056788859599       -1.54659948430935
H            0.88164226261627        1.70763139367226       -1.13985157064863
H            3.83521489251141        0.85617381482631       -0.30866872186786
H            6.26830551500528        0.96141076176093       -0.75020205118670
