  102
       -170.16526145
 C         10.3513870168       -2.3909672083       -3.1531543737
 C          8.9873346250       -2.5660900399       -3.0181275410
 C          8.2941003024       -1.9230216258       -2.0058978444
 C          8.9583244131       -1.0977402050       -1.1047328155
 C         10.3398052581       -0.9090723497       -1.2638068464
 C         11.0257329674       -1.5550131743       -2.2760956925
 O         11.0643274913       -0.0799799938       -0.4467381139
 C         10.3912777434        0.5707507321        0.5549700410
 C         11.1311646671        1.4005905707        1.3773237017
 C         10.5182888267        2.0729449951        2.4238592657
 C          9.1658411824        1.9001678489        2.6487720742
 C          8.4182591649        1.0714459914        1.8282641533
 C          9.0129254286        0.4062044987        0.7614411636
 N          8.2925737143       -0.4343594064       -0.0797633739
 C          6.8997305948       -0.6128454818        0.1023090961
 C          6.4040277833       -1.8422324510        0.5358912756
 C          5.0509989705       -2.0212546696        0.7031924931
 C          4.1558626618       -0.9738657389        0.4367927967
 C          2.7457480570       -1.1665290231        0.5896677993
 N          2.2821928567       -2.3808523202        1.0581189026
 N          1.0388953009       -2.6057340384        1.0685587119
 C          0.1136611313       -1.7515036302        0.7267484540
 C         -1.2640337853       -2.1592528059        0.5750967110
 C         -1.8488615426       -3.0714402504        1.4595050683
 C         -3.1914498510       -3.3711812556        1.3734907648
 C         -3.9782607194       -2.7803273269        0.3863372551
 N         -5.3713141966       -3.0060849290        0.3369626198
 C         -5.8888601844       -4.2731828402        0.0805876225
 C         -5.0730996157       -5.3762212691       -0.1442895134
 C         -5.6221722940       -6.6237643103       -0.3938758251
 C         -6.9927911209       -6.7896019922       -0.4329839322
 C         -7.8207013404       -5.6936813052       -0.2411300473
 C         -7.2790280479       -4.4455702370        0.0055871774
 O         -8.1576255172       -3.4018685486        0.1511695402
 C         -7.6315366675       -2.1593402823        0.3960555372
 C         -8.5261753482       -1.1153682245        0.5469342327
 C         -8.0686726474        0.1625369350        0.8303512905
 C         -6.7139635505        0.3831683715        0.9820178324
 C         -5.8124100384       -0.6572378201        0.8268486631
 C         -6.2509800363       -1.9378488539        0.5075350148
 C         -3.3857861259       -1.9351497546       -0.5501933919
 C         -2.0493323386       -1.6255808170       -0.4574514092
 C          0.5873823633       -0.3809955748        0.4293700272
 C         -0.3199482632        0.7274917897        0.3032214732
 C         -1.5266294473        0.7644908143        1.0245567378
 C         -2.4340363947        1.7744042284        0.8170689556
 C         -2.1749179117        2.7758233090       -0.1184029338
 N         -3.1691580669        3.7403355539       -0.3976592825
 C         -4.3878438543        3.3344158051       -0.9376237448
 C         -4.6254659606        2.0210765114       -1.3294710412
 C         -5.8527381308        1.6486876223       -1.8531380446
 C         -6.8602963952        2.5809430361       -2.0040306122
 C         -6.6289225001        3.9019980614       -1.6513823885
 C         -5.4043083450        4.2813140058       -1.1325987906
 O         -5.2345865112        5.6096458663       -0.8369731461
 C         -4.0199630446        5.9964853533       -0.3290505370
 C         -3.8582845542        7.3385672042       -0.0385783646
 C         -2.6690430325        7.7969250337        0.5082666257
 C         -1.6520985100        6.9016267023        0.7771986357
 C         -1.8067879940        5.5558142919        0.4862044965
 C         -2.9814641813        5.0841529911       -0.0888568152
 C         -0.9481628784        2.7935894805       -0.7821659398
 C         -0.0299480740        1.7918235508       -0.5641440485
 N          1.8846815998       -0.2092162283        0.3133989283
 C          4.6661157228        0.2621296954        0.0084452025
 C          6.0192177915        0.4384919203       -0.1555360069
 H         10.8937795971       -2.8920858911       -3.9390174054
 H          8.4494135595       -3.2034312554       -3.7028000427
 H          7.2277699684       -2.0554150236       -1.9138800508
 H         12.0871792953       -1.3867236598       -2.3628721182
 H         12.1868821144        1.5032928296        1.1838399635
 H         11.1021420527        2.7191862608        3.0597317785
 H          8.6808111145        2.4072451507        3.4684342830
 H          7.3656756752        0.9314538004        2.0170426369
 H          7.0946553963       -2.6476515135        0.7395411643
 H          4.6531080013       -2.9647623663        1.0418722680
 H         -1.2397543353       -3.5097633498        2.2351803385
 H         -3.6471119975       -4.0432929583        2.0856697922
 H         -4.0018121909       -5.2541992169       -0.1325853288
 H         -4.9663848367       -7.4640096421       -0.5612599412
 H         -7.4236729328       -7.7597400337       -0.6225906183
 H         -8.8941495155       -5.7850882902       -0.2853739852
 H         -9.5786475867       -1.3262305308        0.4441659504
 H         -8.7717050301        0.9724600009        0.9413771728
 H         -6.3479756485        1.3696813919        1.2201315423
 H         -4.7578113073       -0.4745734365        0.9556158075
 H         -3.9900039749       -1.5177111665       -1.3422398001
 H         -1.5960212832       -0.9800414446       -1.1940198582
 H         -1.7293005342        0.0099313038        1.7684973105
 H         -3.3618752866        1.7972013004        1.3700221125
 H         -3.8429517380        1.2871964484       -1.2232252631
 H         -6.0161728319        0.6216773634       -2.1406964720
 H         -7.8195079469        2.2916702979       -2.4025020010
 H         -7.3870364157        4.6584406123       -1.7761860589
 H         -4.6785672195        8.0080264941       -0.2423188100
 H         -2.5505917463        8.8455652694        0.7298428046
 H         -0.7289502548        7.2424202998        1.2199207555
 H         -1.0137674983        4.8617386658        0.7144897604
 H         -0.7366831673        3.5839931156       -1.4874556268
 H          0.9106823021        1.7876065009       -1.0930051677
 H          3.9747524767        1.0654295956       -0.1927554668
 H          6.4136188377        1.3867862006       -0.4909185959
