102
 energy: -170.230940691209 gnorm: 0.000062297076 xtb: 6.7.1 (edcfbbe)
C           10.15529062947639       -2.92954087090946       -2.80540028462429
C            8.78260922818866       -3.04222259711932       -2.68735583824042
C            8.08464515317691       -2.22862258551008       -1.80978151010463
C            8.75141083271087       -1.29125621568786       -1.02716641972219
C           10.14178977766501       -1.16848133993738       -1.17249114100915
C           10.83333525202712       -1.98513944444443       -2.04907534015279
O           10.87281665222725       -0.24038586286750       -0.47209312939125
C           10.19229950192255        0.58235891196266        0.39198299099052
C           10.93728259518114        1.51406110379887        1.09232301381526
C           10.31931661874960        2.36437444058524        1.99713580359497
C            8.95614776357050        2.26737740231743        2.20432830838296
C            8.20446746489331        1.33621492097001        1.50615438942474
C            8.80454117828071        0.48925890172517        0.57979734538463
N            8.07994158809660       -0.45765520017349       -0.13799368083735
C            6.68372421622577       -0.59793033108961        0.06092191992498
C            6.18087458965018       -1.73483304398161        0.69324105330517
C            4.82640432596582       -1.87362328087507        0.89145044046549
C            3.93718930625305       -0.87852623461309        0.45934925018541
C            2.52364290166041       -1.02667876341243        0.66160035665151
N            2.06077130725830       -2.14335670801033        1.32526344058696
N            0.80974512841718       -2.35347520212696        1.37008965373658
C           -0.11018950970470       -1.54867835114799        0.91009265287016
C           -1.47313346574135       -2.02419912663825        0.81386791549817
C           -1.97605655708612       -2.91896463797534        1.76648245140276
C           -3.26649062110321       -3.39225002845905        1.67673407884584
C           -4.08602189682939       -2.99668138901887        0.62031867507555
N           -5.41534293152979       -3.47362876958983        0.53249321846539
C           -5.66800008872409       -4.83071911539684        0.33971671008640
C           -4.64675318815511       -5.75582333544050        0.14933987876403
C           -4.93243147236941       -7.09859075924899       -0.03855994280959
C           -6.24158873770395       -7.54085725294111       -0.04998461594738
C           -7.27348109131497       -6.62786410997277        0.10866713509121
C           -6.99408906065675       -5.28606007158206        0.29518298814876
O           -8.06681600455336       -4.43655977501698        0.41728778767636
C           -7.80051400387436       -3.09791972349451        0.57257976918655
C           -8.88873122728492       -2.25010424397779        0.67615178041051
C           -8.69942323401973       -0.88912823106822        0.86403787048940
C           -7.41579437571657       -0.38677461349996        0.96010057957105
C           -6.32225058733469       -1.23122791243460        0.85426443379136
C           -6.49236166194116       -2.59530767158883        0.64097495656567
C           -3.58453413445679       -2.13354412597814       -0.35169644880384
C           -2.29798169621238       -1.65084682877007       -0.25589358245980
C            0.36755670347952       -0.24123930377827        0.41707922078542
C           -0.48587422733874        0.88782529769964        0.17891113514409
C           -1.70590219940691        1.05731739832934        0.85903739433686
C           -2.49637306439363        2.15738469298100        0.62196015115440
C           -2.10753544001958        3.12153485555974       -0.30770814947207
N           -2.94088837386736        4.23467242016169       -0.57311450200557
C           -4.19137999038904        4.05717624053652       -1.16055352063421
C           -4.66884831146876        2.80355910125569       -1.53025360375311
C           -5.91852274322310        2.66286542551276       -2.11171606302424
C           -6.71162689244453        3.77073233217886       -2.34281226925472
C           -6.24172246474269        5.03106015296016       -2.00464308705692
C           -4.99406740063898        5.17744574339888       -1.42544236948346
O           -4.58502393671216        6.45781021838393       -1.14208501438028
C           -3.35230479282211        6.61433778316074       -0.55638654454971
C           -2.95882461208788        7.90586719867029       -0.25575610822690
C           -1.73879765056479        8.13830995883210        0.36166991010674
C           -0.92603265668480        7.06973003962388        0.68970067660632
C           -1.31443733077507        5.77410720943271        0.38966874598680
C           -2.52188799163647        5.52413572636411       -0.25485509383857
C           -0.88615249669152        2.98165286482503       -0.96921331467284
C           -0.08627710373494        1.89173798553037       -0.72211608416159
N            1.67348536600923       -0.11311214124889        0.25133740269025
C            4.45406858059820        0.26177241002927       -0.17451419034375
C            5.80844784520146        0.39922923921039       -0.37091277973692
H           10.70231440984656       -3.56362656817007       -3.48505844558034
H            8.24217655984230       -3.76367859861532       -3.28060127241346
H            7.01259803520848       -2.31598926888085       -1.72965352067870
H           11.90216328883860       -1.86285160510664       -2.12739000255453
H           12.00085904944914        1.55463685637871        0.91737725368618
H           10.90740769800743        3.08901669199274        2.53769041830730
H            8.46571914140074        2.91472089859062        2.91496872932400
H            7.14338983124196        1.25844359816670        1.68269221375917
H            6.86524407600769       -2.50104879600786        1.02744213593491
H            4.42525409433050       -2.74565025553578        1.38429670993909
H           -1.33926364305238       -3.22251780508964        2.58342427702559
H           -3.65241839038431       -4.06764532445441        2.42614224639233
H           -3.62194220842465       -5.41982955294768        0.14357083428283
H           -4.12026110220428       -7.79519165165816       -0.17872800807679
H           -6.46818376640432       -8.58578570265172       -0.19117119059256
H           -8.30685543169793       -6.93639517228677        0.08720004024636
H           -9.87690895768099       -2.67795650775856        0.61355150188533
H           -9.55338698462357       -0.23513395562628        0.94233639948441
H           -7.25417233667944        0.66776189214147        1.12234244287647
H           -5.32557141307195       -0.83063940518763        0.94416433652016
H           -4.21021318661856       -1.85165542633892       -1.18582572812779
H           -1.91140536059466       -1.00124237238934       -1.02665525330868
H           -2.00623908198520        0.33810081741123        1.60546916802029
H           -3.42278312001197        2.28727768017836        1.16251769243013
H           -4.05252928380549        1.93445996285034       -1.36591692535901
H           -6.26599463638215        1.67810354132322       -2.38406885141657
H           -7.68669569910521        3.66512715897579       -2.79139724921564
H           -6.82738704251589        5.91833525978573       -2.18699346057658
H           -3.62461111894622        8.71552747643957       -0.51011550903746
H           -1.43813551436027        9.14858640063213        0.58990952125270
H            0.01801808830308        7.23509066779765        1.18572900569972
H           -0.67916466628605        4.94622166334701        0.66191142734156
H           -0.57879588359364        3.73334782583395       -1.68183256929755
H            0.85533783502443        1.77876786252413       -1.23690111859944
H            3.76811413008195        1.02600759235332       -0.50565374995894
H            6.20521106987823        1.27556983571275       -0.86254722539971
