  91
       -136.09849637
 C         -1.3492294252        5.9376067322       -1.8344139545
 C         -0.9068320213        5.1547458258       -0.5952905531
 C          0.6026755241        4.8942629788       -0.7031761569
 C         -1.2021810266        6.0138240441        0.6421791318
 C         -1.6169079989        3.8179053460       -0.4610368347
 C         -2.5262557602        3.3455215646       -1.4010775127
 C         -3.1156056748        2.1006795468       -1.2716674046
 C         -2.8149716627        1.2992706271       -0.1782997062
 N         -3.3245854936       -0.0097596203       -0.0761282117
 C         -2.5298738782       -1.1360116193       -0.0579245368
 C         -1.0781192180       -1.0893334294       -0.1372240000
 C         -0.3334722187       -1.9377397790        0.6813841361
 C          1.0439418493       -1.8666405209        0.6964615739
 C          1.7049041112       -0.9519709417       -0.1189515660
 N          3.1111299192       -0.8294591486       -0.0677232774
 C          3.9171527288       -1.8942571987       -0.4743571546
 C          3.3659485580       -3.0438011693       -1.0196325981
 C          4.1692862135       -4.1131754621       -1.3928184860
 C          5.5335086189       -4.0388228562       -1.2182989335
 C          6.1023328098       -2.8799996111       -0.7068668682
 C          5.3149203998       -1.7928173576       -0.3583410032
 N          5.8835573104       -0.6118762076        0.1171106238
 C          7.2931864449       -0.5036080183        0.2075391672
 C          8.0597247424       -0.4156689586       -0.9492062930
 C          9.4363943685       -0.3192272372       -0.8597697994
 C         10.0542598473       -0.3037267338        0.3798642687
 C          9.2917032972       -0.3871639012        1.5331018717
 C          7.9149134339       -0.4898613037        1.4510252760
 C          5.0808290799        0.4585487470        0.5057917510
 C          5.6394926843        1.6475023087        0.9506641835
 C          4.8385910597        2.7000457668        1.3735144437
 C          3.4685774730        2.5646676539        1.3578038080
 C          2.8935919191        1.3916282633        0.8860502582
 C          3.6800561932        0.3426409621        0.4324936783
 C          0.9678140171       -0.1476874724       -0.9830155335
 C         -0.4096294101       -0.2151408896       -0.9937541048
 N         -3.2305400817       -2.2349145076        0.0567339374
 C         -4.5313063817       -1.8425240184        0.1090503362
 C         -5.6880235284       -2.6656375809        0.1978354949
 C         -5.5837529105       -4.0601480472        0.2321657217
 C         -6.7125671014       -4.8383630531        0.2892185082
 C         -7.9647006428       -4.2270640905        0.3076343871
 C         -8.0786013778       -2.8568132856        0.2799878567
 C         -6.9484478808       -2.0262661549        0.2319562856
 C         -7.0345371597       -0.5760543700        0.2376761741
 C         -8.2647785539        0.0877996954        0.3462974640
 C         -8.3522699222        1.4588222322        0.3957433130
 C         -7.1981450125        2.2346148580        0.3543257478
 C         -5.9734595466        1.6246887062        0.2404445406
 C         -5.8648245872        0.2289886168        0.1612126813
 C         -4.6213225427       -0.4525558865        0.0416694781
 C         -1.9287140627        1.7657591837        0.7848948473
 C         -1.3405473239        3.0049793453        0.6362698624
 H         -0.8125351718        6.8831516267       -1.8744965272
 H         -2.4139269975        6.1574483641       -1.7997133132
 H         -1.1262678767        5.3890075407       -2.7465635370
 H          0.8179877072        4.2800321914       -1.5750374699
 H          0.9813765847        4.3773772917        0.1737848404
 H          1.1392004177        5.8350803215       -0.8036794080
 H         -2.2739212536        6.1725418134        0.7433310223
 H         -0.8398140948        5.5426934562        1.5513783312
 H         -0.7178196599        6.9831466629        0.5470359335
 H         -2.7817673803        3.9374834646       -2.2642933051
 H         -3.8046506636        1.7418034129       -2.0228869462
 H         -0.8566873895       -2.6340237741        1.3179430591
 H          1.6183217920       -2.5076597963        1.3487854553
 H          2.2981048754       -3.1084544861       -1.1580215590
 H          3.7141471484       -4.9973748534       -1.8112519842
 H          6.1694359385       -4.8696283260       -1.4822006520
 H          7.1720702467       -2.8255936326       -0.5781655521
 H          7.5686169200       -0.4273890408       -1.9111706919
 H         10.0283182616       -0.2524856029       -1.7606092344
 H         11.1292323932       -0.2288165615        0.4472644544
 H          9.7714883803       -0.3794350866        2.5005763330
 H          7.3129665615       -0.5598949244        2.3450308116
 H          6.7126380922        1.7561971872        0.9699689353
 H          5.2995320243        3.6123682237        1.7192598887
 H          2.8341977781        3.3648767813        1.7076111687
 H          1.8188602246        1.2963883651        0.8754063040
 H          1.4853405998        0.5357404662       -1.6399004385
 H         -0.9636181947        0.4033354918       -1.6830697180
 H         -4.5954427385       -4.4921572407        0.2062228051
 H         -6.6370849564       -5.9155035226        0.3144308139
 H         -8.8568894306       -4.8357056828        0.3435495356
 H         -9.0686768467       -2.4293006270        0.2929752173
 H         -9.1782800217       -0.4818124724        0.4029921145
 H         -9.3185781670        1.9341291079        0.4799797169
 H         -7.2641496638        3.3109275116        0.4159682946
 H         -5.0789921315        2.2274970306        0.2274920048
 H         -1.6955872736        1.1469281169        1.6389608264
 H         -0.6465015708        3.3342056495        1.3939404029
