  75
       -117.15226163
 O         -0.0336897674        2.9081720084       -2.5987826438
 P         -0.0476085807        2.4586171169       -1.2008615421
 C         -0.0739442110        3.8380900995       -0.0053513431
 C         -1.1615376734        4.1314579220        0.8014149611
 C         -1.1134141933        5.2299174091        1.6433349828
 C          0.0144341365        6.0329815276        1.6755571150
 C          1.0981954891        5.7458084918        0.8598005705
 C          1.0522828255        4.6501732073        0.0185914568
 C          1.3916386940        1.4588991881       -0.7269758611
 C          1.8355192625        1.3660064394        0.6007566716
 C          2.8954464485        0.5299144219        0.9311394157
 C          3.4820863149       -0.2132765399       -0.0785772457
 C          3.0605221329       -0.0956261704       -1.4425757664
 C          1.9869826176        0.7339379006       -1.7478743837
 C          3.9217048484       -0.9304779573       -2.2118232326
 C          4.0044935681       -1.2386112932       -3.5695129403
 C          4.9623017602       -2.1531699025       -3.9838232296
 C          5.8197984291       -2.7675353008       -3.0805050826
 C          5.7601812621       -2.4687259447       -1.7168653870
 C          4.8288010346       -1.5373379844       -1.3008932751
 N          4.5461648285       -1.0875735610       -0.0185335581
 C          5.2122342764       -1.4736593371        1.1405486475
 C          4.4881008384       -1.8517185396        2.2778836936
 C          5.1523269308       -2.2331082678        3.4235665235
 C          6.5412497989       -2.2429872488        3.4626875773
 C          7.2629518809       -1.8669733813        2.3365373048
 C          6.6117008274       -1.4864336893        1.1828913282
 C         -1.4472329175        1.3796781547       -0.7916211584
 C         -2.3815768361        1.1481991340       -1.8018676774
 C         -3.4804693658        0.3238199318       -1.5852301676
 C         -3.6009329826       -0.2779447089       -0.3427230661
 C         -2.6583711899       -0.0380748858        0.7007946459
 C         -1.5625427353        0.7849033984        0.4618426937
 C         -3.1156603357       -0.7601016904        1.8429885247
 C         -2.6275035969       -0.9259715062        3.1387400224
 C         -3.3229430284       -1.7501380853        4.0072119086
 C         -4.4778531127       -2.4171868321        3.6095284191
 C         -4.9883878578       -2.2624619420        2.3222149230
 C         -4.3158122751       -1.4183355365        1.4582891244
 N         -4.5912540095       -1.1096218381        0.1363918605
 C         -5.6933818209       -1.5640165134       -0.5876366112
 C         -6.9756440239       -1.4858587280       -0.0367889636
 C         -8.0635598483       -1.9354263626       -0.7558184632
 C         -7.8947611003       -2.4670790558       -2.0270925047
 C         -6.6223986224       -2.5454620435       -2.5765303587
 C         -5.5260406093       -2.0994332979       -1.8677590910
 H         -2.0393750192        3.5008419219        0.7709552497
 H         -1.9590968979        5.4600009022        2.2754913742
 H          0.0481430218        6.8877583109        2.3352829121
 H          1.9745593437        6.3771195359        0.8816720990
 H          1.8829041676        4.4078281633       -0.6318164415
 H          1.3765986319        1.9785458292        1.3616576934
 H          3.2593375771        0.4839485073        1.9466708267
 H          1.6240927855        0.8459631022       -2.7588138667
 H          3.3337330087       -0.7756430635       -4.2757552087
 H          5.0368528146       -2.4025167635       -5.0322381359
 H          6.5405271744       -3.4901846245       -3.4298398545
 H          6.4116254369       -2.9698078044       -1.0174491258
 H          3.4097303012       -1.8775170601        2.2325725509
 H          4.5869979368       -2.5348081653        4.2928227315
 H          7.0563346700       -2.5410605009        4.3625398931
 H          8.3424283104       -1.8629927025        2.3658701247
 H          7.1697988150       -1.1592259252        0.3187309632
 H         -2.2413277382        1.6433944017       -2.7502439246
 H         -4.2226241195        0.1813992920       -2.3557444495
 H         -0.8275954948        0.9667335255        1.2301205395
 H         -1.7250102597       -0.4236920477        3.4509747984
 H         -2.9577135085       -1.8886277017        5.0144621452
 H         -4.9851086985       -3.0687941870        4.3037302330
 H         -5.8705530966       -2.8014466412        2.0122919136
 H         -7.1066497818       -1.0421564660        0.9387246351
 H         -9.0523340681       -1.8643697002       -0.3277214083
 H         -8.7488056192       -2.8177417469       -2.5854783938
 H         -6.4856069565       -2.9661921715       -3.5616033180
 H         -4.5319354145       -2.1888071619       -2.2791141413
