  103
  -171.012176100000       0.410217613620305      !
 N         -2.1557222896       -3.2566886119       -2.3491989529
 C         -1.8296206199       -2.4504400492       -1.6035043828
 C         -1.4142615445       -1.4244778973       -0.7208081034
 C         -2.3309939610       -0.4229995953       -0.3632295844
 N         -3.6552392406       -0.5063998662       -0.7868911032
 C         -4.5578097796       -1.5020724371       -0.4353686489
 C         -4.3376596288       -2.7031001884        0.2171605682
 C         -5.4318257402       -3.5059294537        0.4803980361
 C         -6.7177075419       -3.1195949872        0.1159003528
 C         -6.9444794416       -1.9120451479       -0.5147850722
 C         -5.8599999372       -1.0925843557       -0.7924930149
 C         -5.7361961872        0.2060821085       -1.3966734940
 C         -6.6472141930        1.1014987989       -1.9377261252
 C         -6.1739861829        2.2852052858       -2.4701620765
 C         -4.8109084139        2.5622223470       -2.5060931683
 C         -3.8853581413        1.6817129882       -1.9784631693
 C         -4.3633861405        0.5263278951       -1.3830992274
 C         -1.8878452092        0.6687940912        0.4045690343
 N         -2.7696941081        1.6756862467        0.7902489395
 C         -2.6830267819        3.0122496321        0.4223328598
 C         -1.6562850912        3.6875259248       -0.2153653044
 C         -1.8450387225        5.0257188678       -0.5059005376
 C         -3.0313827141        5.6764097041       -0.1824321848
 C         -4.0662150408        5.0013567134        0.4344937565
 C         -3.8963761558        3.6586419223        0.7394562225
 C         -4.7507283320        2.6685504862        1.3365187472
 C         -6.0402373932        2.6992333798        1.8472461902
 C         -6.5671900582        1.5393517556        2.3815831489
 C         -5.8128712773        0.3719143731        2.4478906169
 C         -4.5238250129        0.3208532020        1.9518505942
 C         -4.0178053247        1.4643762147        1.3566193724
 C         -0.5413494880        0.7249831052        0.7984875490
 C         -0.1239756433        1.7545328867        1.6761074374
 N          0.2066628783        2.5653292670        2.4147357841
 C          0.3727106701       -0.2789309369        0.4456268451
 N          1.6960078217       -0.2106444415        0.8818047529
 C          2.3788262422       -1.2668207517        1.4673000025
 C          1.8726823550       -2.4023578000        2.0769659860
 C          2.7781336047       -3.3111431201        2.5915790746
 C          4.1496526065       -3.0833157618        2.5250225417
 C          4.6555702781       -1.9230118645        1.9724823420
 C          3.7629028119       -1.0000331521        1.4463132539
 C          3.9157110969        0.2840739828        0.8275462506
 C          5.0065051926        1.0685559113        0.4815838668
 S          6.6876250462        0.6932069294        0.7418105789
 C          7.1625794937        2.2017826036       -0.0114047632
 C          8.4623316162        2.6466589463       -0.1825937483
 C          8.6641815899        3.8678534219       -0.7965826033
 C          7.5845190319        4.6304384227       -1.2317704724
 C          6.2902498970        4.1844526782       -1.0611899405
 C          6.0601148073        2.9570201060       -0.4454846773
 C          4.8106767750        2.2989452556       -0.1658680629
 C          3.5167916317        2.7282861878       -0.4722147270
 C          2.4203722696        1.9592083237       -0.1500121348
 C          2.6242662096        0.7482356733        0.5031052783
 C         -0.0670320228       -1.3656077828       -0.3315269077
 N          0.8226050833       -2.3608933568       -0.7301743046
 C          2.0730438205       -2.1229995572       -1.2827121027
 C          2.5563587008       -0.9709981395       -1.8803735433
 C          3.8557874340       -0.9886519856       -2.3518028773
 C          4.6421404023       -2.1326333794       -2.2589972040
 C          4.1361528463       -3.3044187993       -1.7300495780
 C          2.8361192309       -3.3075407915       -1.2457634826
 C          1.9964331546       -4.3165828437       -0.6592975164
 C          2.1929389610       -5.6550492493       -0.3523273225
 C          1.1650112555       -6.3544641853        0.2490434399
 C         -0.0408009718       -5.7318174324        0.5550704476
 C         -0.2564198081       -4.3980834432        0.2620865393
 C          0.7636595463       -3.6987215667       -0.3595570513
 H         -3.3487583012       -3.0126530136        0.5205042284
 H         -5.2830182832       -4.4506480387        0.9813662351
 H         -7.5474870093       -3.7738432181        0.3369759639
 H         -7.9430264444       -1.6046652189       -0.7847862474
 H         -7.7015107040        0.8718169438       -1.9434157204
 H         -6.8674110822        3.0005956457       -2.8855674776
 H         -4.4653299378        3.4805338530       -2.9562381601
 H         -2.8278719428        1.8912554751       -2.0391633223
 H         -0.7351746919        3.1948721321       -0.4882874199
 H         -1.0555929262        5.5743522831       -0.9971648574
 H         -3.1423123524        6.7223730366       -0.4257792637
 H         -4.9927138723        5.5010836020        0.6719642529
 H         -6.6137978878        3.6132192411        1.8284052453
 H         -7.5730830734        1.5392270191        2.7736648770
 H         -6.2384304402       -0.5127081242        2.8969315904
 H         -3.9361089764       -0.5809809191        2.0362064702
 H          0.8096481559       -2.5748944596        2.1565836357
 H          2.4101315940       -4.2142372498        3.0543838419
 H          4.8253976378       -3.8203843087        2.9312931037
 H          5.7167164460       -1.7289907758        1.9495214992
 H          9.2929018489        2.0490170168        0.1595934139
 H          9.6698437065        4.2337583338       -0.9383563405
 H          7.7641914873        5.5828036992       -1.7078614965
 H          5.4559623034        4.7803773472       -1.3990891578
 H          3.3792916390        3.6728294932       -0.9750705257
 H          1.4286300111        2.2959592673       -0.4090372022
 H          1.9427759578       -0.0882662750       -1.9836766629
 H          4.2645502567       -0.0959705420       -2.8011091374
 H          5.6564825375       -2.1050146569       -2.6270146501
 H          4.7347882876       -4.2013738353       -1.6940984084
 H          3.1336968448       -6.1332603331       -0.5774956224
 H          1.2962649109       -7.3980433580        0.4922404244
 H         -0.8252835041       -6.2990673416        1.0330276491
 H         -1.1940489337       -3.9283074829        0.5184284888
  103
  -171.012074560000       0.368425558721883      !
 N         -2.0965844553       -3.2427646465       -2.3690256875
 C         -1.7932592277       -2.4387232975       -1.6113430845
 C         -1.3970962131       -1.4194683747       -0.7122091385
 C         -2.3143791866       -0.4161714379       -0.3635312409
 N         -3.6248514009       -0.4700364247       -0.8312061942
 C         -4.5569886863       -1.4605101620       -0.5478447048
 C         -4.3822582893       -2.6896397303        0.0649408956
 C         -5.4995075600       -3.4806285107        0.2575362871
 C         -6.7644120513       -3.0560923373       -0.1365372298
 C         -6.9466172289       -1.8211913358       -0.7272326602
 C         -5.8381798822       -1.0132529402       -0.9347830267
 C         -5.6704921008        0.3036122629       -1.4867354810
 C         -6.5453058250        1.2350332400       -2.0269142745
 C         -6.0319157612        2.4264516015       -2.5020269519
 C         -4.6634038199        2.6767634235       -2.4837124963
 C         -3.7736155657        1.7603485761       -1.9556915521
 C         -4.2935314729        0.5959593097       -1.4154657976
 C         -1.8836086370        0.6576049032        0.4384825348
 N         -2.7796834403        1.6424564835        0.8465761986
 C         -2.7091398744        2.9944006407        0.5345700103
 C         -1.6820806378        3.7136985780       -0.0525094279
 C         -1.8886294829        5.0597780532       -0.2897289891
 C         -3.0922421588        5.6764552100        0.0364910871
 C         -4.1271006973        4.9583751988        0.6025680285
 C         -3.9395978737        3.6069760702        0.8536863923
 C         -4.7883859672        2.5797929236        1.3933409034
 C         -6.0880736312        2.5674677005        1.8784357025
 C         -6.6038076560        1.3784779402        2.3569822641
 C         -5.8292017800        0.2232827986        2.3949733428
 C         -4.5303204983        0.2145972976        1.9225881127
 C         -4.0346841198        1.3888078840        1.3807870432
 C         -0.5413325943        0.7101910878        0.8449557793
 C         -0.1259547751        1.7250801467        1.7404148299
 N          0.2083826569        2.5192353908        2.4952976122
 C          0.3775451159       -0.2874342008        0.4850434066
 N          1.7026041104       -0.2065020760        0.9154178227
 C          2.4033284082       -1.2488698844        1.5034996416
 C          1.9164436759       -2.3814752902        2.1339150531
 C          2.8378951719       -3.2754364942        2.6460046840
 C          4.2061887678       -3.0358680208        2.5565781204
 C          4.6934312799       -1.8785613085        1.9815136592
 C          3.7847281325       -0.9702889333        1.4572440332
 C          3.9171631371        0.3047831384        0.8154295870
 C          4.9948851756        1.0893047107        0.4302390128
 S          6.6839241431        0.7290188950        0.6588552174
 C          7.1323177971        2.2191308160       -0.1456934797
 C          8.4251299170        2.6631589053       -0.3651232891
 C          8.6053017376        3.8663551040       -1.0199747626
 C          7.5111756917        4.6124531622       -1.4475070514
 C          6.2238470309        4.1680339526       -1.2276721399
 C          6.0155169247        2.9583845945       -0.5704242188
 C          4.7768416704        2.3029505040       -0.2413182228
 C          3.4738613454        2.7191699003       -0.5269455134
 C          2.3899673103        1.9502401623       -0.1649119784
 C          2.6166367818        0.7532666960        0.5061780414
 C         -0.0568397305       -1.3712471261       -0.2966970831
 N          0.8280413455       -2.3793806987       -0.6750985348
 C          2.0856115695       -2.1656554528       -1.2201736063
 C          2.5845057409       -1.0321846989       -1.8399200421
 C          3.8875087163       -1.0730826207       -2.2998337293
 C          4.6623181863       -2.2216690594       -2.1730211992
 C          4.1414483092       -3.3758741913       -1.6203457588
 C          2.8372359988       -3.3561616404       -1.1480206327
 C          1.9829976231       -4.3432058880       -0.5452918669
 C          2.1633666414       -5.6752149235       -0.2019409973
 C          1.1227596491       -6.3491358411        0.4065977888
 C         -0.0807209855       -5.7082848035        0.6834523805
 C         -0.2805901532       -4.3806393588        0.3542699085
 C          0.7532465303       -3.7071113084       -0.2731912309
 H         -3.4107609956       -3.0313694668        0.3887945087
 H         -5.3855682030       -4.4471866197        0.7247883467
 H         -7.6130543942       -3.7024638184        0.0290062229
 H         -7.9289248616       -1.4841930722       -1.0204628573
 H         -7.6030060946        1.0271679315       -2.0761064460
 H         -6.6972858885        3.1696042466       -2.9146635480
 H         -4.2851655226        3.6024884844       -2.8902524722
 H         -2.7107231673        1.9495700870       -1.9750029765
 H         -0.7458372006        3.2502472960       -0.3249129081
 H         -1.0987821956        5.6420322173       -0.7399563052
 H         -3.2164317404        6.7299717806       -0.1640105075
 H         -5.0666855553        5.4318064598        0.8424185265
 H         -6.6783939318        3.4707488536        1.8828672475
 H         -7.6171831971        1.3449369927        2.7274713535
 H         -6.2465197528       -0.6852438646        2.8020324857
 H         -3.9267905209       -0.6786091540        1.9852129076
 H          0.8562545853       -2.5631025953        2.2296048176
 H          2.4853499639       -4.1759648051        3.1255491180
 H          4.8945042735       -3.7614300118        2.9624384596
 H          5.7523559042       -1.6757863903        1.9392298290
 H          9.2670892758        2.0780636622       -0.0291571865
 H          9.6052336595        4.2307665732       -1.2007607401
 H          7.6740073761        5.5506953378       -1.9565625630
 H          5.3783114116        4.7513465520       -1.5596059987
 H          3.3197883667        3.6515626728       -1.0473732251
 H          1.3900295686        2.2732677532       -0.4102873669
 H          1.9801546908       -0.1462350863       -1.9674519098
 H          4.3082973109       -0.1952655359       -2.7670049059
 H          5.6797611007       -2.2122404674       -2.5333536885
 H          4.7318210799       -4.2768698784       -1.5578041341
 H          3.1016527399       -6.1680273672       -0.4050183970
 H          1.2415990274       -7.3871815751        0.6782980470
 H         -0.8749557459       -6.2562530340        1.1678106145
 H         -1.2155648886       -3.8939724627        0.5888689615
  103
  -171.011025530000       0.121408457799923      !
 N         -2.1425108546       -3.0918966307       -2.6468214407
 C         -1.8029708648       -2.3066436031       -1.8849033046
 C         -1.3831584083       -1.3380181414       -0.9414852133
 C         -2.3070866060       -0.3882901363       -0.4778901989
 N         -3.6181211661       -0.3953027991       -0.9503074336
 C         -4.7457905184       -0.3389016463       -0.1448081393
 C         -4.8654429991       -0.6207128149        1.2056771799
 C         -6.1160723504       -0.4909727026        1.7797403935
 C         -7.2229305141       -0.1193514704        1.0229447266
 C         -7.1168614974        0.0990784510       -0.3371690669
 C         -5.8699080483       -0.0198506675       -0.9332957067
 C         -5.3969890346        0.1153467733       -2.2842765564
 C         -6.0198432674        0.4404475710       -3.4806271248
 C         -5.2518603514        0.5222376166       -4.6253708028
 C         -3.8795198152        0.2960422303       -4.5844717698
 C         -3.2365787972       -0.0255839833       -3.4034216063
 C         -4.0074086086       -0.1281246393       -2.2575225415
 C         -1.8927023282        0.5702573958        0.4638359044
 N         -2.7826737839        1.5333602718        0.9360203072
 C         -3.5780755474        2.3339556302        0.1304735232
 C         -3.4490240237        2.6110372854       -1.2201911666
 C         -4.3795192594        3.4573404385       -1.7933085870
 C         -5.3929664886        4.0356923613       -1.0353617309
 C         -5.4842676071        3.8103221593        0.3247212163
 C         -4.5645807492        2.9591316010        0.9200477338
 C         -4.3464474481        2.5196103981        2.2713796646
 C         -4.9988744219        2.7710714849        3.4697844717
 C         -4.5422619275        2.1487443193        4.6147372990
 C         -3.4580913414        1.2775105928        4.5725531013
 C         -2.7947415373        1.0086950160        3.3896531236
 C         -3.2379163825        1.6471592757        2.2435119430
 C         -0.5651584209        0.5531377574        0.9186434608
 C         -0.1453625929        1.5141779184        1.8699644082
 N          0.1940139083        2.2880649614        2.6435802034
 C          0.3601785121       -0.3908538243        0.4481097866
 N          1.6778942140       -0.3656482546        0.9060195820
 C          2.3739294475       -1.4710462800        1.3711526571
 C          1.8831479560       -2.6800839464        1.8341704653
 C          2.8007462831       -3.6271203393        2.2482970076
 C          4.1680445595       -3.3675039123        2.2284439854
 C          4.6571883942       -2.1403582282        1.8255758636
 C          3.7526608073       -1.1775365992        1.4011823030
 C          3.8873743018        0.1728193447        0.9388266859
 C          4.9652248521        1.0155325705        0.7071803172
 S          6.6502406929        0.6526395486        0.9609591342
 C          7.1004169696        2.2510267924        0.4028186315
 C          8.3905024993        2.7465166477        0.3207669502
 C          8.5716343911        4.0367640312       -0.1390082025
 C          7.4813223971        4.8173730622       -0.5108538683
 C          6.1967891849        4.3212112818       -0.4290278224
 C          5.9875933648        3.0240558423        0.0315015674
 C          4.7507289475        2.3075398286        0.2015573682
 C          3.4531346907        2.7396769026       -0.0844340120
 C          2.3687406323        1.9170873177        0.1272025029
 C          2.5914888772        0.6466937702        0.6488731618
 C         -0.0524167042       -1.3490871199       -0.4939322425
 N          0.8452126230       -2.2981455886       -0.9808303959
 C          2.1113976846       -2.0063229062       -1.4670714766
 C          2.6119620547       -0.7973372478       -1.9203911668
 C          3.9248427130       -0.7680576363       -2.3523708274
 C          4.7075759941       -1.9183102485       -2.3622891676
 C          4.1865791242       -3.1390170241       -1.9780606360
 C          2.8728520922       -3.1907231115       -1.5355235662
 C          2.0175562641       -4.2532481356       -1.0808590943
 C          2.2068403277       -5.6166773274       -0.9078593649
 C          1.1651190350       -6.3704056462       -0.4041810357
 C         -0.0473034842       -5.7787894416       -0.0632662893
 C         -0.2579708800       -4.4216945153       -0.2242127400
 C          0.7773206154       -3.6671609466       -0.7498003960
 H         -4.0170369136       -0.9353860991        1.7951242553
 H         -6.2320637327       -0.6830520373        2.8356271236
 H         -8.1822521307       -0.0199214743        1.5078088323
 H         -7.9828446884        0.3547455093       -0.9279765609
 H         -7.0817390969        0.6306245082       -3.5080140233
 H         -5.7172589006        0.7715540297       -5.5670602632
 H         -3.3013397968        0.3746873962       -5.4927504520
 H         -2.1684820322       -0.1855939679       -3.3884247437
 H         -2.6494521665        2.1886245299       -1.8105527671
 H         -4.3140901298        3.6725253268       -2.8491233235
 H         -6.1055821226        4.6864941204       -1.5192113628
 H         -6.2505789561        4.2868038713        0.9164808263
 H         -5.8482208360        3.4359419422        3.4988564349
 H         -5.0338757710        2.3332207353        5.5580110379
 H         -3.1276834170        0.7972753819        5.4811845026
 H         -1.9622822396        0.3206697642        3.3729683098
 H          0.8230476889       -2.8816754384        1.8750373816
 H          2.4455918132       -4.5860940062        2.5937832530
 H          4.8536785789       -4.1358388553        2.5517245966
 H          5.7144491021       -1.9257080262        1.8396309713
 H          9.2295560280        2.1341585443        0.6124201749
 H          9.5693470112        4.4429861090       -0.2087495577
 H          7.6447402340        5.8240144115       -0.8655266330
 H          5.3537715529        4.9312443331       -0.7162225303
 H          3.3026801020        3.7309771638       -0.4823338162
 H          1.3740458595        2.2591945485       -0.1148005995
 H          2.0027824416        0.0944550072       -1.9413049682
 H          4.3469342032        0.1671011467       -2.6887470437
 H          5.7327048639       -1.8540764968       -2.6938724621
 H          4.7845602330       -4.0360712096       -2.0208634273
 H          3.1532752090       -6.0713939013       -1.1571471569
 H          1.2907313973       -7.4335015667       -0.2645108946
 H         -0.8416715786       -6.3897681369        0.3381624146
 H         -1.2009889340       -3.9773168852        0.0580033381
  103
  -171.010841720000       9.994836985788934E-002 !
 N         -2.2092709958       -3.2727971093       -2.3435037796
 C         -1.8849745564       -2.4635615533       -1.6001262327
 C         -1.4675089655       -1.4301878905       -0.7270912287
 C         -2.3841884696       -0.4242910775       -0.3723783966
 N         -3.7120294611       -0.5326354674       -0.7740703877
 C         -4.5502180068       -1.6018207922       -0.4908839408
 C         -4.2918134490       -2.7589547398        0.2251965368
 C         -5.3273406945       -3.6582317438        0.3953770882
 C         -6.5951816034       -3.4075797935       -0.1204012313
 C         -6.8656646746       -2.2393613577       -0.8053485073
 C         -5.8395538407       -1.3232823485       -0.9893553936
 C         -5.7704653836       -0.0292323135       -1.6117722575
 C         -6.6966096568        0.7543353649       -2.2849956624
 C         -6.2858034714        1.9684373841       -2.7998575493
 C         -4.9651796684        2.3889208236       -2.6759620075
 C         -4.0230375556        1.6199964942       -2.0185617638
 C         -4.4432060331        0.4244727958       -1.4596515635
 C         -1.9338466485        0.6808858671        0.3664903230
 N         -2.7914624264        1.7145117967        0.7302583638
 C         -2.5783482491        3.0586982111        0.4601414631
 C         -1.5496664820        3.6637911511       -0.2428329363
 C         -1.5893601672        5.0369171393       -0.3924044938
 C         -2.6359114340        5.7909867834        0.1295303495
 C         -3.6836538687        5.1871078052        0.7963017572
 C         -3.6626633602        3.8089929694        0.9592711289
 C         -4.5678602138        2.8709709292        1.5654335321
 C         -5.7772121682        3.0097464316        2.2310565433
 C         -6.3895990648        1.8779644000        2.7329452449
 C         -5.7959386965        0.6261051148        2.6046052148
 C         -4.5860027966        0.4655377134        1.9554399313
 C         -3.9939955104        1.5914505467        1.4079147853
 C         -0.5856913074        0.7337510527        0.7612631440
 C         -0.1593347921        1.7640563236        1.6340213819
 N          0.1789177515        2.5680827836        2.3768657788
 C          0.3238103147       -0.2763578494        0.4203813795
 N          1.6454267271       -0.2069477288        0.8602204282
 C          2.3228071441       -1.2538494407        1.4669814154
 C          1.8112972999       -2.3834759823        2.0831352994
 C          2.7118921044       -3.2811744988        2.6248258723
 C          4.0834110771       -3.0483295588        2.5770772552
 C          4.5937898832       -1.8945966684        2.0150003340
 C          3.7062352536       -0.9824898092        1.4617374397
 C          3.8637002041        0.2935743319        0.8275386433
 C          4.9559609984        1.0768831184        0.4829976171
 S          6.6352717815        0.7133182807        0.7706198607
 C          7.1138337956        2.2104221755       -0.0029574215
 C          8.4136793837        2.6579666907       -0.1662511550
 C          8.6180131878        3.8676800312       -0.8017319084
 C          7.5408506845        4.6164498171       -1.2660708345
 C          6.2464549641        4.1686507486       -1.1019386894
 C          6.0139212683        2.9529608385       -0.4643062833
 C          4.7637888752        2.2957121011       -0.1868927279
 C          3.4723746709        2.7177004552       -0.5130746413
 C          2.3748313334        1.9511748113       -0.1901691902
 C          2.5751722129        0.7496121280        0.4811029048
 C         -0.1180354543       -1.3680590804       -0.3494031439
 N          0.7766536772       -2.3584962094       -0.7493148801
 C          2.0285560584       -2.1014121532       -1.2913165445
 C          2.4922474773       -0.9469651364       -1.8995623667
 C          3.7972118349       -0.9409406338       -2.3558729407
 C          4.6086896043       -2.0646417836       -2.2363286260
 C          4.1231636660       -3.2407064392       -1.6974504507
 C          2.8172752079       -3.2676633885       -1.2300497880
 C          1.9922342606       -4.2874802873       -0.6412147207
 C          2.2150933669       -5.6174637782       -0.3162935013
 C          1.1946102241       -6.3340146090        0.2773931169
 C         -0.0303637508       -5.7365574045        0.5561216767
 C         -0.2721064785       -4.4110981954        0.2459818749
 C          0.7419950207       -3.6939548570       -0.3649672996
 H         -3.3187466148       -2.9595958837        0.6492441352
 H         -5.1471283317       -4.5718943086        0.9415068342
 H         -7.3775067941       -4.1365351352        0.0277477077
 H         -7.8538472927       -2.0361546420       -1.1885724266
 H         -7.7136924679        0.4145848166       -2.4062493276
 H         -6.9924870922        2.5959970158       -3.3215636111
 H         -4.6643557893        3.3315127076       -3.1079248805
 H         -2.9956119243        1.9452806381       -1.9619441377
 H         -0.7403037110        3.0906834208       -0.6713871036
 H         -0.7920894839        5.5321318955       -0.9259543094
 H         -2.6286560790        6.8626044352       -0.0003745475
 H         -4.5058138315        5.7699533915        1.1821408042
 H         -6.2223352092        3.9848378574        2.3564404754
 H         -7.3344668518        1.9636216615        3.2479782473
 H         -6.2833845669       -0.2397731739        3.0267414048
 H         -4.1232140196       -0.5075413894        1.8972032271
 H          0.7477144180       -2.5589516355        2.1482485456
 H          2.3402429335       -4.1789977145        3.0949168624
 H          4.7551936598       -3.7762984012        3.0057203397
 H          5.6544427645       -1.6967684191        2.0057147406
 H          9.2423899050        2.0707712591        0.1978137312
 H          9.6237907950        4.2351814902       -0.9383355586
 H          7.7225347749        5.5594968622       -1.7595986074
 H          5.4138638192        4.7540715931       -1.4617240894
 H          3.3380197512        3.6543479718       -1.0312712629
 H          1.3850509991        2.2830453779       -0.4615484743
 H          1.8594637702       -0.0802959205       -2.0217933720
 H          4.1905581154       -0.0453787117       -2.8131336692
 H          5.6270313325       -2.0181691033       -2.5910896749
 H          4.7423760546       -4.1224534810       -1.6406829042
 H          3.1698863963       -6.0758043500       -0.5229644768
 H          1.3461033004       -7.3715404638        0.5343544169
 H         -0.8096661875       -6.3173218474        1.0262405648
 H         -1.2260077212       -3.9627296164        0.4783381120
