107
 energy: -152.453870668673 gnorm: 0.000066533546 xtb: 6.7.1 (edcfbbe)
C            1.41752129072097        3.22147694136490       -2.08704772805750
C            0.25289042460010        4.22778449854823       -2.12721488280232
C            0.40572863396377        5.08234750847446       -3.38912563094587
C            0.34431801444631        5.16008836571483       -0.90584656344229
C           -1.05301163865344        3.46677931789520       -2.07941256036822
C           -2.02684202309605        3.52700979909863       -3.10961342159108
C           -3.19232668280213        2.82299055703427       -3.06275330348892
C           -3.46321516349874        1.98018238266043       -1.93764490327212
C           -2.47791155665855        1.93756982939309       -0.87304021079684
C           -1.32286112749095        2.64250724976889       -0.95739661384699
C           -2.94048229147364        0.99008114362467        0.21947256432934
C           -3.26054595056305        1.67978288494421        1.53175501240104
C           -3.57488845382451        3.03261693709512        1.56489743637375
C           -3.93594782586243        3.64270166792275        2.75350069070672
C           -3.99898409708792        2.90652231184551        3.92430229996088
C           -3.69806893859738        1.55443503592565        3.89815805295835
C           -3.33358699192691        0.94578648597529        2.71116827572142
C           -1.86994038236285       -0.07313101148837        0.35407937759643
C           -0.74558267641847        0.18950064897617        1.14683193906127
C            0.32737475697603       -0.67488020097653        1.20191189236962
C            0.27367973102636       -1.83167159224754        0.43753033729342
C           -0.87745843536719       -2.14262122341641       -0.32005440856006
C           -1.93882810716039       -1.25014091425633       -0.37467735751029
C           -0.63537836235397       -3.42919301819534       -0.91330145556185
C           -1.38169153667563       -4.25027278286687       -1.74815340543130
C           -0.83275230928144       -5.44918903541382       -2.16034671519067
C            0.44959694069020       -5.82362581130583       -1.76480690468335
C            1.21180768288272       -5.02280697379616       -0.93432974897029
C            0.65544278163934       -3.83031341309809       -0.49470263655263
N            1.19479144962969       -2.85232463556561        0.32016755978180
C            2.49831536528510       -2.83271667949868        0.83707121338877
C            2.99173582131370       -3.91727229662775        1.55766095297149
C            4.28698765167184       -3.88455858497418        2.04306877787553
C            5.09462406572675       -2.78240810206021        1.82804234922680
C            4.60646565957507       -1.69597883476863        1.10449024750977
N            5.42671735697836       -0.58555253566310        0.85785217002499
C            5.09592565397559        0.73766318309062        1.07902656190612
C            3.94925628675719        1.28216568657888        1.63830536750478
C            3.88245852913898        2.65556414505611        1.77569115096735
C            4.93409907747273        3.47730694607303        1.37589493667659
C            6.09027416023462        2.94077722144462        0.84464309955165
C            6.17989964910451        1.56209052173216        0.69800206765592
C            7.21106008616729        0.68442024113644        0.21894759142472
C            8.48377625853112        0.89743424280138       -0.29564686227001
C            9.22835756975440       -0.19502982087571       -0.69401744049610
C            8.71198919815902       -1.48596760044375       -0.60016170766644
C            7.44881976847344       -1.72287563129578       -0.09143411209980
C            6.70582934846265       -0.63131684350770        0.33564690004988
C            3.30840400844155       -1.72515199141439        0.60821467009652
C           -4.25238353303548        0.49014237819387       -0.35454782105555
C           -5.13035077042831       -0.39807495836732        0.17305043255924
C           -6.33442123467990       -0.72042954673624       -0.50512595995758
C           -7.27825740027269       -1.72465805915010        0.11672604845811
C           -7.70098847215861       -1.22774026192329        1.51089401345072
C           -8.54777183929252       -1.94921220791777       -0.71075875008608
C           -6.55193308248771       -3.07512136877770        0.25441028924748
C           -6.59235789672073       -0.07964433641941       -1.74420762542348
C           -5.73342762443770        0.81924825023488       -2.30110956626529
C           -4.51387981558012        1.14169302414259       -1.62480183993521
H            1.37669246532927        2.60396178819678       -1.19438868691220
H            1.37655571880254        2.56596069885285       -2.95500941909854
H            2.36938955191993        3.74867907255838       -2.09403155102098
H            1.36290671415809        5.59956288203638       -3.36129236110859
H            0.38433979992758        4.46574570319026       -4.28502747115910
H           -0.37980640669298        5.83217566553352       -3.45276860810228
H           -0.47856220561213        5.87241388343421       -0.91447463707181
H            1.28161188167669        5.71217783541206       -0.92893584921037
H            0.30119556278292        4.60090007531054        0.02449933050242
H           -1.84085662791828        4.15019277650017       -3.97000890579135
H           -3.90916127743610        2.87959088585285       -3.86829129668118
H           -0.60174417844572        2.58220863688550       -0.15665541471019
H           -3.53338101823389        3.61169133065263        0.65323205037877
H           -4.17158907973557        4.69749004401819        2.76338098504621
H           -4.28297038108366        3.38233279397165        4.85183763091050
H           -3.74633751131275        0.97184215886100        4.80736740589853
H           -3.09135839488064       -0.10764160440016        2.69991887810784
H           -0.72365417706947        1.09262529070470        1.73932261495442
H            1.17676425337785       -0.46048353398866        1.83184469736114
H           -2.80745823076527       -1.47066216732097       -0.97683829154939
H           -2.36928109070545       -3.95157221605111       -2.06684687749697
H           -1.39861193187626       -6.10461975985008       -2.80606565929208
H            0.85869359178418       -6.75947814019297       -2.11663508174150
H            2.21050718297259       -5.31524100734659       -0.64789310948057
H            2.35593598697042       -4.76860546537024        1.74523209958248
H            4.66706054113815       -4.72246243490857        2.60787212633856
H            6.09645104282944       -2.75016400294066        2.22760855041576
H            3.13689671746150        0.65427998998446        1.96891903106215
H            2.99695126337771        3.10087616614426        2.20563310125299
H            4.84341152342470        4.54702341895197        1.49584017741076
H            6.91330411340632        3.57594963401370        0.55263289188345
H            8.87733229400488        1.89916550584339       -0.38402826390862
H           10.22133866788186       -0.05129931508593       -1.09420968222153
H            9.31125919167560       -2.31993983502972       -0.93558367100613
H            7.05238726689386       -2.72564429257762       -0.03991861390051
H            2.93650553048600       -0.90037612209347        0.01890891916936
H           -4.90854009325534       -0.86725430013966        1.11971939740184
H           -8.39350006607479       -1.93437311738988        1.96381439523935
H           -6.84546955786441       -1.11722965326309        2.17136566333549
H           -8.19463470799365       -0.26109493735397        1.43030356881385
H           -9.11276273546896       -1.02588795231616       -0.81869584371875
H           -9.18360939614176       -2.67521599796539       -0.20759444881853
H           -8.30990593431205       -2.33988314971853       -1.69771765217616
H           -6.24547278454353       -3.43768161292972       -0.72508219374486
H           -7.21533939496830       -3.81121950165985        0.70379540836291
H           -5.66596407746654       -2.98715668605081        0.87737311818767
H           -7.50498315989504       -0.30764086359422       -2.27156232840772
H           -5.95934157014400        1.29447269770207       -3.24402708806187
