107
 energy: -152.453912586134 gnorm: 0.000060401138 xtb: 6.7.1 (edcfbbe)
C           -1.17536141034863        6.21054577642507       -1.61152337359766
C           -0.60187519104449        4.79207765371061       -1.78012236615816
C            0.49145298187771        4.59017323192575       -0.72619120579214
C            0.04997854937802        4.66765464741066       -3.16896370121810
C           -1.72320117958720        3.78468290764122       -1.66097016574602
C           -2.79872083434191        3.82614340684239       -2.59436025030708
C           -3.84667379129318        2.96137197011834       -2.55494364825217
C           -3.88977949169601        1.96049355471194       -1.53385548154377
C           -2.80442879096007        1.93124868865433       -0.56843584853188
C           -1.76318157910633        2.80128175446829       -0.64730554214641
C           -3.03648950754987        0.81306592580244        0.43081752103196
C           -3.31449447739323        1.30360342175522        1.83933347628741
C           -3.80056226250351        2.58641481234439        2.06006022621334
C           -4.12976371971920        3.00494603758052        3.33739263345129
C           -3.98878002398582        2.14303489968431        4.41163426633153
C           -3.51473612442563        0.85876334406730        4.19928837952701
C           -3.18255493868079        0.44188317267587        2.92327476908281
C           -1.84866669980457       -0.12509467233013        0.35594719742653
C           -0.69219158419872        0.16759015104244        1.08939585600958
C            0.44512364942071       -0.60841325771675        1.00249543792949
C            0.42469957567642       -1.70557224982527        0.15291963448254
C           -0.74180639461228       -2.03086857099360       -0.57518573106903
C           -1.86896875940651       -1.22711244316747       -0.48451650567667
C           -0.44864564943214       -3.24090934659593       -1.29263431446148
C           -1.17990616787813       -4.03393953054658       -2.16702798346653
C           -0.57770100058670       -5.15517157108933       -2.70424984771676
C            0.73949745989596       -5.48209763742515       -2.38865194691124
C            1.48748318961649       -4.70807074424323       -1.52088934948357
C            0.88084178672711       -3.59275673169559       -0.96128731071358
N            1.39779281519271       -2.65282787577160       -0.09016107424533
C            2.70399020961501       -2.63903710469219        0.42188880343021
C            3.21591766388799       -3.76139518751410        1.06789686027858
C            4.51002424262923       -3.73992861150299        1.55616947756545
C            5.29926287349814       -2.61331295935132        1.41222595405382
C            4.79479117674006       -1.49130776504871        0.75741599532982
N            5.60343527132249       -0.36056456641072        0.57608099740593
C            5.26157647475082        0.94516940055254        0.87243963591838
C            4.10809133451585        1.44792453641280        1.45642449175573
C            4.03193271025445        2.81024469754890        1.67545333059306
C            5.08042799983038        3.66079758727668        1.33133095614621
C            6.24199405682155        3.16468632693973        0.77332939541315
C            6.34125981336913        1.79785432643554        0.54515829757204
C            7.38038585274782        0.95737759099695        0.01899092377126
C            8.65274601975641        1.20982998681765       -0.47852208326840
C            9.40664115961707        0.14840845624707       -0.93860466758960
C            8.89984400537487       -1.14954907177573       -0.92206809715366
C            7.63735301854656       -1.42540728502970       -0.43159560538653
C            6.88499394496108       -0.36657454426223        0.05715713813698
C            3.49472108710358       -1.50615009208809        0.26448096434506
C           -4.32847893246779        0.21010594654919       -0.08919493564166
C           -5.03150081281637       -0.84370088071949        0.39412148543748
C           -6.23931792043896       -1.25712836203148       -0.22514621816201
C           -6.97476904886319       -2.45460494330519        0.33307321968228
C           -6.05517013247896       -3.68705857499176        0.25474295036179
C           -7.34222484597895       -2.18444141164774        1.80307328591879
C           -8.26543994866355       -2.77598398771773       -0.42699154717990
C           -6.69466534049433       -0.52358064244205       -1.35064471708728
C           -6.01767809959492        0.54533124186923       -1.85597582538444
C           -4.79112200462001        0.95652570281821       -1.24371945206476
H           -1.92117253600330        6.42935043899331       -2.37092177461585
H           -1.64338637986803        6.31232222344843       -0.63414589979316
H           -0.37815359407577        6.94667186056595       -1.69236053026471
H            1.27586457314853        5.33091413982845       -0.86928286787410
H            0.09437382775357        4.71256634856669        0.27914885262199
H            0.94130538150193        3.60366467041182       -0.81541288939423
H            0.43860724408372        3.66111495927415       -3.31155955801385
H            0.87388960034403        5.37291271726003       -3.25679814618918
H           -0.66094609336251        4.87483420314219       -3.96392613762472
H           -2.77902151387565        4.57727977436949       -3.37045294704159
H           -4.64211896013958        3.01213576899895       -3.28352888739559
H           -0.97072194245753        2.74286560717337        0.08030782087962
H           -3.92048361970197        3.26154727758725        1.22449100364258
H           -4.50244493098818        4.00752819623193        3.49295926496359
H           -4.24874821877519        2.46885873949374        5.40842499697243
H           -3.40348613316286        0.17836929009337        5.03181798183628
H           -2.80627617262243       -0.55925225951886        2.76647231857733
H           -0.69738943847663        1.01727418859153        1.75631825183365
H            1.31705130806424       -0.37610923956968        1.59431208582635
H           -2.75436999116995       -1.46520866094694       -1.05434420220723
H           -2.19628988794763       -3.77228571666838       -2.42121623633853
H           -1.12969176920035       -5.78657388712352       -3.38493777887083
H            1.18723837255740       -6.35839195560072       -2.83428760463454
H            2.51197683706182       -4.96181203076413       -1.29441757514963
H            2.59420799049302       -4.63428744264356        1.19438514128411
H            4.90359913196923       -4.60650804395246        2.06574603331302
H            6.30080391882457       -2.59067397106025        1.81310226209637
H            3.29783458472480        0.79676479763376        1.74472810485631
H            3.14192873970247        3.22356729049503        2.12704334943384
H            4.98238136764367        4.72074334723069        1.51482711044444
H            7.06196606627161        3.82123148945100        0.52290237556592
H            9.03846598904662        2.21807239695567       -0.50704486133808
H           10.39927664277955        0.32285582908731       -1.32731838792348
H            9.50562672941223       -1.95795410282017       -1.30501973764168
H            7.24883061969901       -2.43253346057846       -0.44111804779750
H            3.10738793395589       -0.65018491503353       -0.26748715613945
H           -4.66265263892003       -1.37900505032508        1.25606842744391
H           -6.56782485204358       -4.56095403344010        0.65148934033867
H           -5.78229234521813       -3.88599228347970       -0.78001029854899
H           -5.14225631183467       -3.53808172464753        0.82483628340818
H           -6.45782172143079       -2.00632921407075        2.40854933088266
H           -7.87414345268093       -3.03869467171997        2.21702500394004
H           -7.98395865961936       -1.30822434186395        1.87402760195829
H           -8.96525293180369       -1.94448149450173       -0.37986615071338
H           -8.74414905556580       -3.64330625308421        0.02373989953140
H           -8.05941501830111       -3.01101138928224       -1.46893244192482
H           -7.61484737158971       -0.81773297567031       -1.82998045379717
H           -6.39189754835904        1.08718805608801       -2.71175326100012
