80
 energy: -124.497079062590 gnorm: 0.000163633426 xtb: 6.7.1 (edcfbbe)
O           -4.29939028676745       -3.47742843902037        1.94565727078297
C           -3.81537783702466       -2.49404023664633        1.41888444879102
C           -2.35096288000484       -2.34364607184819        1.24779298798989
C           -1.59686719561531       -3.49003869564099        0.99222337679414
C           -0.23948315636959       -3.41096072262831        0.78209470615523
C            0.41794634659381       -2.17768975231540        0.84405881855487
N            1.78705741635177       -2.09887494659879        0.60353603677989
C            2.59908170478708       -1.21791230691847        1.32971398527181
C            2.32554027285397       -0.93683562122641        2.66807511147747
C            3.15482648051530       -0.09768472687636        3.38731172662432
C            4.27160428603251        0.46580622382085        2.79257399936764
C            4.54363917816802        0.19594413864809        1.46057011160129
C            3.71503711551001       -0.63392817026198        0.73019454175186
C            2.37373390757758       -2.96768972201713       -0.33020681607402
C            1.71036195782963       -3.27208755916724       -1.51842260171275
C            2.28762218084429       -4.12382903488827       -2.44040458586652
C            3.53393305240937       -4.67784504324493       -2.19877861917629
C            4.19611607197603       -4.37987946972537       -1.01932888475467
C            3.62249558256696       -3.53640740670457       -0.08742024953693
C           -0.32738509111217       -1.03530839549287        1.15135442795929
C           -1.68961605151180       -1.11901015338771        1.34740486430768
C           -4.67679541570780       -1.40856332684063        0.87405027494387
C           -5.97550146020220       -1.26017390479035        1.36252016337018
C           -6.81590740012898       -0.29621823745673        0.83698688132610
C           -6.37138720196319        0.54065843663969       -0.17361739284751
C           -5.07322210847652        0.41559435671452       -0.65726369937732
C           -4.54531320435282        1.32805313376875       -1.71327078710903
O           -5.19573859896882        1.68265960319054       -2.67251466800744
C           -3.13781011435018        1.72404519746422       -1.47215449301052
C           -2.69455978055688        1.99371716784895       -0.17659858475649
C           -1.37076014999612        2.27466546494625        0.06878858272564
C           -0.43982390817454        2.26280876485260       -0.97510555624976
N            0.90777974165629        2.47309877960476       -0.70599631971351
C            1.90098535667667        1.79948975198358       -1.42668382236474
C            3.12348568104757        2.41930262178732       -1.68297423678087
C            4.10702765692779        1.75434648586165       -2.38852644459259
C            3.88607789663565        0.47102844404184       -2.86066121255636
C            2.67294441152028       -0.14911966421171       -2.60991438147442
C            1.68960000835346        0.50109973888855       -1.88952631550642
C            1.27448335248943        3.34497778353680        0.33398399698994
C            2.29545353598036        2.99936378529177        1.21515479730849
C            2.65058658368273        3.86058989785454        2.23546693523880
C            1.99321165959132        5.06941569639321        2.39354695080863
C            0.97559739549070        5.41538098166817        1.51903863804913
C            0.61663859779718        4.56345261636412        0.49235867848469
C           -0.89160560518231        2.03789960137509       -2.27885013043293
C           -2.22523176370032        1.79034979764010       -2.52306034779596
C           -4.24029697950130       -0.57607191476551       -0.14888226773749
H           -2.10189081486745       -4.44350400972065        0.95311238746757
H            0.32953024571189       -4.30535131099443        0.57611697552479
H            1.46944134493648       -1.39161550351650        3.14438751576995
H            2.93371080399531        0.10549251103086        4.42460848051628
H            4.92484580440818        1.10998717368731        3.36111920302106
H            5.40360307845623        0.63993289317899        0.98099314351527
H            3.92832313055030       -0.83326038811494       -0.30878246369762
H            0.74048094964256       -2.83758547280415       -1.71296375959823
H            1.76332392416250       -4.34955000928199       -3.35743691421269
H            3.98415294116160       -5.33912193471229       -2.92317032989610
H            5.16394400959698       -4.81448881176489       -0.81791666854025
H            4.13708556574229       -3.31660829718113        0.83631298700745
H            0.17054562647869       -0.07939193769969        1.22322181069184
H           -2.24299317060027       -0.22586575014318        1.59569230349746
H           -6.30659216318652       -1.91686671891364        2.15332416348416
H           -7.82197978037536       -0.19426144605985        1.21565012766034
H           -7.01523292557779        1.30133677021711       -0.58940451666381
H           -3.40108624846033        1.99150754681243        0.64103754568964
H           -1.03787996856728        2.48099730254716        1.07541304118325
H            3.29346252079299        3.42548876095003       -1.32937394762633
H            5.04861596191776        2.24707550555291       -2.58094872668317
H            4.65330515419824       -0.04467076958375       -3.41801051486124
H            2.49784497972751       -1.15411813781167       -2.96431882740693
H            0.75330090028551        0.00534217074341       -1.67798193133056
H            2.80295559730182        2.05425110250255        1.09646969685643
H            3.44035753917569        3.57794297215310        2.91518465171068
H            2.27172247447368        5.73912353103346        3.19288202730568
H            0.46231982421692        6.35875641736945        1.63204253760535
H           -0.17248244717468        4.83483046838175       -0.19374785453588
H           -0.18543167583948        2.06233077172668       -3.09554330571131
H           -2.57494543609835        1.61953392592504       -3.53020993018740
H           -3.25900538585890       -0.71450397941115       -0.57792454869829
