80
 energy: -124.414709436612 gnorm: 0.000117991313 xtb: 6.7.1 (edcfbbe)
O           -4.26460834950760       -3.59102979394846        1.65093718685390
C           -3.76579227230734       -2.51548225070581        1.21227274127121
C           -2.32741389585959       -2.36905265698283        1.12374851852203
C           -1.53700346652332       -3.53740891699325        1.03394817925631
C           -0.17981421048451       -3.46188453654582        0.87675916654631
C            0.46712897271603       -2.21574372217336        0.83668275398738
N            1.84929898116222       -2.14335081868529        0.61255696481568
C            2.63099896359766       -1.24821368740976        1.33594660913136
C            2.29525408939964       -0.92103677362522        2.65350973500709
C            3.08425460060625       -0.04954086830936        3.37642249324496
C            4.21745550386236        0.51112890894887        2.80714544913694
C            4.54590344612444        0.20530069042163        1.49414591830051
C            3.76257208367534       -0.66145516551100        0.75976543578673
C            2.42479922623280       -3.00265924951172       -0.32117033963593
C            1.70896770479964       -3.38365859649873       -1.46070245166353
C            2.27158332937921       -4.24442050136232       -2.38094345569034
C            3.55161223953083       -4.74108299241807       -2.18792564507949
C            4.26329991836030       -4.37486896766814       -1.05577141449210
C            3.70950814329349       -3.51792659318222       -0.12655900765557
C           -0.29541711787869       -1.05479837826609        1.03221358139635
C           -1.65692897342794       -1.12843447446299        1.18369211687153
C           -4.64417680723828       -1.44197332785222        0.75815312367554
C           -5.98850981199138       -1.42448144212603        1.17861619153950
C           -6.85738198282380       -0.46358417041588        0.70761925140741
C           -6.42692278956081        0.50694037767271       -0.18434512675497
C           -5.09705500352956        0.50115797992536       -0.61396035421407
C           -4.60230682448225        1.52269403944766       -1.56753855334928
O           -5.28864206729801        2.02769053639374       -2.43161208260256
C           -3.16824558218660        1.86937340070843       -1.35776904371475
C           -2.69409906295570        2.10439522660170       -0.06772408811233
C           -1.35598127079456        2.34091944177480        0.15533525781764
C           -0.45196689800346        2.32243432773427       -0.90942230523958
N            0.91269774181586        2.49729627892438       -0.66289133431546
C            1.86669740669191        1.76620891079374       -1.37153221686564
C            3.12289579818402        2.31602226682814       -1.63481150465765
C            4.06728268094983        1.59326377238206       -2.33576571081359
C            3.77627104569298        0.31973424291189       -2.79793970282683
C            2.52968795730476       -0.22973479901227       -2.54427997065021
C            1.58348469438177        0.47764620414490       -1.82918019157443
C            1.30930400885669        3.40241858261038        0.33236864451925
C            2.35028319542443        3.08535953025651        1.20287674100075
C            2.72997259021240        3.98120464081214        2.18321267808630
C            2.07922764810257        5.19736840283651        2.31277053790584
C            1.04093614438575        5.51427990348936        1.45121002037205
C            0.65545171069169        4.62730483405574        0.46524397586029
C           -0.93179515694795        2.13006034194472       -2.20634339503378
C           -2.27794510375080        1.92083885514605       -2.42607171124866
C           -4.22579583553253       -0.48268937455181       -0.16610821176672
H           -2.03578842716468       -4.49340459216621        1.06782459743379
H            0.40940743347296       -4.36352038779415        0.79017494563657
H            1.42723331844158       -1.37565391475527        3.10680691112859
H            2.82002413263936        0.18485358947414        4.39657918346131
H            4.83775227898991        1.18367050193753        3.37925718822717
H            5.41463596409536        0.65283578511150        1.03435181335314
H            4.01066495149695       -0.87857943395352       -0.26795799007579
H            0.71531806333118       -2.99120950499694       -1.61781683967017
H            1.70967221839019       -4.52500824128100       -3.25934225063358
H            3.98836036494675       -5.41283507261398       -2.91054195482109
H            5.25436229504651       -4.76989009853052       -0.88969205525661
H            4.25798539728676       -3.25670674767427        0.76624501269855
H            0.19997173022229       -0.09422938031903        1.05448547204205
H           -2.21516635400583       -0.22525454738370        1.37204256499824
H           -6.32004206844539       -2.18165620151880        1.87215725496639
H           -7.88594031851780       -0.46772505950859        1.03835551712066
H           -7.09643268149116        1.26740240315312       -0.55490014799029
H           -3.38505818362127        2.10118537230775        0.76263058276902
H           -0.99375654413737        2.51418862728703        1.15825287539014
H            3.34638945014643        3.31679282891846       -1.29643375040635
H            5.03324476068274        2.03327212049911       -2.53434025106212
H            4.51326395052393       -0.24119627767714       -3.35226425474954
H            2.29851500410586       -1.22413408258005       -2.89588277455067
H            0.62123183186185        0.03511456257752       -1.61759050507856
H            2.84949206209479        2.13280258465251        1.11018820799347
H            3.53397312183083        3.72142055289495        2.85521099852396
H            2.37796863971765        5.89411146035161        3.08083857129633
H            0.53187652154798        6.46194552368965        1.54297489753109
H           -0.14860327199509        4.87666192006809       -0.21139393650564
H           -0.24080796423788        2.14932173460116       -3.03628805369589
H           -2.65122114916550        1.77368287086840       -3.42837704496303
H           -3.23434333267039       -0.53924410776704       -0.58941887459668
