80
 energy: -124.414709598935 gnorm: 0.000112997752 xtb: 6.7.1 (edcfbbe)
O           -4.27122908840417       -3.55834852419229        1.71668949057786
C           -3.77077130227235       -2.48950076434682        1.26419604027914
C           -2.33252882103028       -2.35010954655916        1.16344568054076
C           -1.54798986740221       -3.52285811930653        1.07923542633420
C           -0.19163567056134       -3.45506361212425        0.91152323441228
C            0.46054396671966       -2.21234849832594        0.85447384502136
N            1.84154132845453       -2.14811717192008        0.61989485688357
C            2.63165023720245       -1.24994240092338        1.33050037508961
C            2.30644267551455       -0.91149556945339        2.64784808776383
C            3.10335385727868       -0.03698355559416        3.35834502654763
C            4.23422170729642        0.51560177662049        2.77667042931600
C            4.55219533241949        0.19861541165222        1.46374691545678
C            3.76081731534160       -0.67122334608026        0.74167483832204
C            2.40669784216479       -3.01701406189810       -0.31114042195857
C            1.67967236952181       -3.40694242314014       -1.44057674834052
C            2.23212287345812       -4.27696586407064       -2.35826609517584
C            3.51307340956155       -4.77414253055585       -2.17289248401957
C            4.23585801330825       -4.39916705949312       -1.05067502091119
C            3.69220973773829       -3.53312303784738       -0.12391849642440
C           -0.29539171120183       -1.04610874732317        1.04385945008931
C           -1.65612545153640       -1.11200178517046        1.20580779846866
C           -4.64797188060898       -1.41669121091352        0.80575162732523
C           -5.98905364629206       -1.38906907864218        1.23583852010528
C           -6.85710596174084       -0.42903935919580        0.76154873043549
C           -6.42901835210250        0.53056566210177       -0.14326597618049
C           -5.10239437082566        0.51450064591752       -0.58256397795371
C           -4.60995953502379        1.52398513554506       -1.55003530614841
O           -5.30029680798420        2.02345802631954       -2.41419097226750
C           -3.17273005952519        1.86582077036887       -1.35451930008682
C           -2.68790107831076        2.11205913729783       -0.07054216153440
C           -1.34706678373162        2.34452506117420        0.14009140049845
C           -0.45108945680240        2.31067641181738       -0.93106285125167
N            0.91614560032417        2.48187082349536       -0.69625965972037
C            1.86183346846617        1.73882578396419       -1.40349494782143
C            3.11930572392421        2.27925416787710       -1.67986944891186
C            4.05542771864722        1.54466480165205       -2.37962877444431
C            3.75470350472854        0.26838201542962       -2.82778794697747
C            2.50679334075539       -0.27183540787811       -2.56112003913113
C            1.56895670678303        0.44741750274109       -1.84685633117035
C            1.32354867985963        3.39573452559527        0.28665489771674
C            2.36808589160201        3.08282900655149        1.15436624446020
C            2.75810595091506        3.98733528605875        2.12263607632575
C            2.11425184890820        5.20812233824244        2.24278421584580
C            1.07243697536169        5.52094967206125        1.38398626804276
C            0.67664679667995        4.62528259790307        0.41003569794911
C           -0.94143097081495        2.10698760839934       -2.22229285796408
C           -2.29014722715075        1.90177921609401       -2.42982772492394
C           -4.23223259285695       -0.46872829210166       -0.13122974994468
H           -2.05084176864283       -4.47617237893910        1.12606893336599
H            0.39289218705345       -4.36017705759658        0.82947802685383
H            1.44015770300939       -1.35964671441438        3.11080120664206
H            2.84712624703335        0.20619069127281        4.37848684125728
H            4.86074509873304        1.19052064914081        3.33911337696864
H            5.41901827735148        0.63976830862700        0.99427899906046
H            4.00076589287346       -0.89690590400830       -0.28613820459908
H            0.68537501108359       -3.01398212456046       -1.59215751457990
H            1.66145065426967       -4.56437866469168       -3.22877842595250
H            3.94195742901524       -5.45295626122716       -2.89361436040494
H            5.22782826373783       -4.79432183092849       -0.89042237531834
H            4.24952568534500       -3.26523560732034        0.76139644372685
H            0.20447120517147       -0.08764374795714        1.05311258387828
H           -2.20882247422467       -0.20437756250478        1.38907430106609
H           -6.31892546611400       -2.13774185625094        1.93932902051375
H           -7.88321985173256       -0.42530065594474        1.09981797387601
H           -7.09794394272270        1.29025369792445       -0.51643257959974
H           -3.37264592532171        2.12078484035637        0.76489781732579
H           -0.97655617243631        2.52651608398686        1.13842937490550
H            3.35034334074760        3.28200253549930       -1.35260354631182
H            5.02252230780284        1.97744865245665       -2.58830987872593
H            4.48515440329502       -0.30185898321624       -3.38126754583871
H            2.26804589834972       -1.26823040898847       -2.90179317395604
H            0.60579464177486        0.01202389146953       -1.62486853204795
H            2.86191971160290        2.12677511215051        1.06914158284014
H            3.56475210016220        3.73075209697038        2.79269070805194
H            2.42104210166867        5.91162265263594        3.00145925163883
H            0.56869804642130        6.47212944739567        1.46844036637056
H           -0.13021936267960        4.87128363055775       -0.26448121894346
H           -0.25659763308597        2.11428585394526       -3.05751426943426
H           -2.67151929945736        1.74587278683901       -3.42775251323926
H           -3.24421176075749       -0.53403316213484       -0.56123996801308
