  171
  -249.214577055100       0.471751988812354      !
 C         -8.9661185672        4.8461128532       -0.8498757308
 C         -7.4838681383        5.1944750017       -1.0124364544
 C         -7.0749528737        6.0838408231        0.1695251098
 C         -7.3185123955        5.9721191271       -2.3264604047
 C         -6.5962368540        3.9589402976       -1.0567054532
 C         -5.2115627246        4.1210132720       -1.1891060473
 C         -4.3336148462        3.0583191311       -1.2670368698
 C         -4.8535386585        1.7753647943       -1.2010664171
 C         -6.2457704363        1.5869287796       -1.0811363543
 C         -7.1058572007        2.6726225548       -1.0059240742
 C         -6.4701925096        0.1691371249       -1.0960340345
 C         -7.6158869522       -0.6057793183       -0.9775663105
 C         -7.5175159775       -1.9863548389       -1.0059120350
 C         -8.7259098641       -2.9006605207       -0.8660365861
 C        -10.0325715828       -2.1227006692       -0.6882338806
 C         -8.8537313897       -3.7668587950       -2.1270109540
 C         -8.5368378744       -3.8003850668        0.3639926654
 C         -6.2496159209       -2.5622206374       -1.1571297908
 C         -5.0958618544       -1.8147676751       -1.2734578459
 C         -5.2061024590       -0.4339304855       -1.2503768189
 N         -4.2303325599        0.5451048403       -1.3067573003
 C         -2.8686081990        0.3173099399       -1.5101307129
 C         -2.4566819385       -0.6019300376       -2.4750620398
 C         -1.1147674525       -0.8562854476       -2.6696719400
 C         -0.1578319723       -0.1937814245       -1.9088877404
 N          1.2215834296       -0.4584729175       -2.1089289764
 C          1.7452175011       -1.6811715764       -1.7156737460
 C          0.9249498395       -2.6474765965       -1.1251305141
 C          1.4400714250       -3.8607809008       -0.7156011056
 C          2.7857744113       -4.1409988132       -0.8798663571
 C          3.6041542787       -3.1893916743       -1.4593993089
 C          3.1041012700       -1.9663330527       -1.8804146912
 C          4.0604096535       -0.9777769411       -2.4977854224
 C          4.8329870809       -1.5971927745       -3.6451148062
 C          4.3385754189       -2.1437940507       -4.8080892349
 C          5.2368400017       -2.6508957554       -5.7378289300
 C          6.6023115101       -2.6059321568       -5.5017697494
 C          7.1047440395       -2.0552026154       -4.3333632979
 C          6.2136432184       -1.5494497360       -3.4016519143
 C          6.4358264559       -0.9200968906       -2.1078180832
 C          7.6095818648       -0.5781803300       -1.4529200633
 C          7.4932880323        0.0648480936       -0.2292548847
 C          6.2358256246        0.3236409431        0.3372933610
 C          5.0669886817        0.0001971827       -0.3218378739
 C          5.1848251471       -0.6147922272       -1.5503337081
 C          6.3854063792        1.0504799538        1.6656250490
 C          7.8789392530        1.2476410522        1.7326320393
 C          8.6154724758        1.8906736663        2.7045005103
 C          9.9982696342        1.9200001070        2.5811068539
 C         10.6271168564        1.3082370126        1.5071275755
 C          9.8916781889        0.6590503992        0.5281942743
 C          8.5114940641        0.6310213681        0.6427642676
 C          5.8799284649        0.1819951519        2.7921819001
 C          6.7103038886       -0.6988421233        3.4666958405
 C          6.2156902813       -1.5166746397        4.4669746855
 C          4.8752849326       -1.4479900141        4.8070412338
 C          4.0368399007       -0.5738844379        4.1455759001
 C          4.5251815576        0.2372273082        3.1204845539
 N          3.6660965491        1.1294058296        2.4774356870
 C          2.3162526338        0.7440975127        2.3740832189
 C          1.2587550700        1.5348932671        2.8223228220
 C         -0.0446861582        1.1055254736        2.6655996730
 C         -0.3155597217       -0.1378639948        2.0994705587
 C         -1.6865981586       -0.6047789679        1.9215054803
 N         -2.6786251316        0.2641773222        2.0859369479
 C         -3.9038369852       -0.2170729248        1.8972992634
 C         -5.0292938942        0.7083797741        2.0020388778
 C         -4.8015297345        2.0777603906        2.1165446170
 C         -5.8658000583        2.9488561377        2.2278386819
 C         -7.1631285776        2.4614502987        2.2258671131
 C         -7.3948901111        1.1003674933        2.1082057643
 C         -6.3346420284        0.2233843860        1.9920242255
 N         -4.1681310569       -1.4967761337        1.6468602556
 C         -3.1199982004       -2.2971578728        1.5299331560
 C         -3.3592899332       -3.7566838530        1.2663441116
 C         -2.2941046089       -4.6208251018        1.9466998642
 C         -2.4524488664       -4.5785595598        3.4632801460
 C         -3.8498982963       -5.0341254962        3.8706800110
 C         -4.9054224489       -4.1516782455        3.2123114826
 C         -4.7642561391       -4.1816641667        1.6939034490
 N         -1.8623411610       -1.8867903130        1.6107783413
 C          0.7446191794       -0.9567650632        1.7134160072
 C          2.0406526196       -0.5161049687        1.8343766253
 C          4.1945392401        2.2639402343        1.8606673677
 C          3.4009170284        3.3500710838        1.4951635244
 C          3.9662611222        4.4898818875        0.9554330407
 C          5.3334864162        4.5732411271        0.7682521570
 C          6.1213382480        3.4730091163        1.0575070953
 C          5.5682841744        2.3169780010        1.5801322129
 C          3.3698232244        0.2900816654       -2.9457837283
 C          4.1248501183        1.2684126702       -3.5747904722
 C          3.5542975273        2.4493671525       -4.0104957483
 C          2.1975387918        2.6499498370       -3.8247120253
 C          1.4310697718        1.6872928301       -3.2007738807
 C          2.0046128368        0.5000506619       -2.7354768475
 C         -0.5639213379        0.7431271252       -0.9656560668
 C         -1.9065186886        0.9984861853       -0.7667713902
 H         -9.1376590522        4.2883142039        0.0678620753
 H         -9.3258148942        4.2617322433       -1.6936350010
 H         -9.5519680326        5.7620780156       -0.8024441271
 H         -6.0336948104        6.3856659477        0.0991137345
 H         -7.6883449488        6.9824673171        0.1923247849
 H         -7.2139636198        5.5483370941        1.1058859521
 H         -7.9698566461        6.8437681043       -2.3330219983
 H         -6.2947896592        6.3110699660       -2.4594105697
 H         -7.5795682960        5.3394098175       -3.1724458016
 H         -4.7987900234        5.1167950624       -1.2462871050
 H         -3.2766536546        3.2347060074       -1.3978424485
 H         -8.1625914279        2.4857047658       -0.9209705468
 H         -8.5626921363       -0.1080594503       -0.8551758456
 H        -10.8617461959       -2.8213288809       -0.5945573293
 H        -10.2277788582       -1.4837655256       -1.5463992332
 H        -10.0039109040       -1.5129431648        0.2119027070
 H         -8.9756164255       -3.1361308633       -3.0052800542
 H         -7.9730591391       -4.3861747744       -2.2730715511
 H         -9.7200614124       -4.4204649960       -2.0482757188
 H         -9.4137565395       -4.4282369259        0.5082834683
 H         -8.3968308441       -3.1937540512        1.2565078311
 H         -7.6718037810       -4.4473934054        0.2527788379
 H         -6.1578023758       -3.6368870607       -1.1844573121
 H         -4.1380985640       -2.3023572876       -1.3655521339
 H         -3.1946749971       -1.0961196167       -3.0877905514
 H         -0.7990883831       -1.5672119974       -3.4191949672
 H         -0.1233719056       -2.4419074506       -0.9774557351
 H          0.7835906426       -4.5896887537       -0.2626910076
 H          3.1930351016       -5.0875306772       -0.5596216679
 H          4.6570564987       -3.3913108063       -1.5920300865
 H          3.2743336827       -2.1774379753       -4.9924200634
 H          4.8679937023       -3.0845530261       -6.6556221718
 H          7.2830436710       -3.0055013857       -6.2391994973
 H          8.1694840119       -2.0230329207       -4.1547659157
 H          8.5757548656       -0.7814993801       -1.8896462979
 H          4.0942606978        0.2410883014        0.0756646645
 H          8.1252001061        2.3624004650        3.5439680963
 H         10.5907298797        2.4228321866        3.3311109723
 H         11.7043277124        1.3396465220        1.4330587918
 H         10.3867302876        0.1846779793       -0.3061702191
 H          7.7542711496       -0.7520708188        3.1979519819
 H          6.8738467270       -2.2027427973        4.9774662962
 H          4.4801197181       -2.0727540821        5.5939146376
 H          2.9944947553       -0.5135199195        4.4202445194
 H          1.4588036421        2.4679565281        3.3267215805
 H         -0.8682417443        1.7158957700        3.0023695927
 H         -3.7852989378        2.4390716470        2.1200366543
 H         -5.6842729175        4.0095402288        2.3168146493
 H         -7.9955105099        3.1436986515        2.3216883936
 H         -8.4073853148        0.7239541034        2.1068504760
 H         -6.4914806629       -0.8385072099        1.8923194266
 H         -3.2658884659       -3.8874450033        0.1807813211
 H         -2.3996752598       -5.6506982961        1.5984419877
 H         -1.3052462563       -4.2569811920        1.6682532329
 H         -1.6985747536       -5.2166282490        3.9297445465
 H         -2.2866970502       -3.5569295415        3.8112705554
 H         -3.9534849746       -4.9928335502        4.9571643073
 H         -3.9975640399       -6.0715625484        3.5596951540
 H         -4.7891296918       -3.1235832862        3.5589111763
 H         -5.9050808132       -4.4896035920        3.4945111355
 H         -5.4896935689       -3.5059921213        1.2441118101
 H         -4.9500752877       -5.1956592128        1.3319575571
 H          0.5309255623       -1.9288629255        1.3034378744
 H          2.8563496492       -1.1509468852        1.5207974696
 H          2.3310628104        3.3035431837        1.6067898174
 H          3.3282709196        5.3173730807        0.6827737273
 H          5.7791565278        5.4694632862        0.3654319566
 H          7.1808665885        3.4992749861        0.8511908988
 H          5.1800181581        1.0946490826       -3.7244731063
 H          4.1594233263        3.1995833182       -4.4953292466
 H          1.7281871494        3.5588018055       -4.1710916808
 H          0.3721795223        1.8521490799       -3.0779090816
 H          0.1812021225        1.2661792871       -0.3856998823
 H         -2.2163781787        1.7015622640       -0.0106992068
  171
  -249.214135016400       0.295506350702987      !
 C         -8.9987179255        4.7987525403       -0.9646595336
 C         -7.5261310989        5.1675083731       -1.1655590796
 C         -7.1206489828        6.1255558365       -0.0375329600
 C         -7.3935828798        5.8791241036       -2.5203516834
 C         -6.6144240222        3.9486641122       -1.1627305609
 C         -5.2349349525        4.1313913131       -1.3201701067
 C         -4.3385463096        3.0825757465       -1.3750734066
 C         -4.8350263193        1.7939250671       -1.2617749021
 C         -6.2204874291        1.5839045941       -1.1039666593
 C         -7.0988832470        2.6560042436       -1.0523391421
 C         -6.4174326135        0.1617394590       -1.0668623951
 C         -7.5333987861       -0.6364653946       -0.8777582103
 C         -7.4039449113       -2.0182856759       -0.8560582978
 C         -8.6358539812       -2.8746416377       -0.5995408668
 C         -9.2026379216       -2.5156149725        0.7817807262
 C         -9.6862031432       -2.5929318573       -1.6827752695
 C         -8.3324473241       -4.3755364932       -0.6095781104
 C         -6.1356407644       -2.5714356225       -1.0438296600
 C         -5.0047839924       -1.7982197009       -1.2312879159
 C         -5.1453652441       -0.4218234611       -1.2415745858
 N         -4.1914935113        0.5736327962       -1.3496752293
 C         -2.8302698305        0.3582919019       -1.5708388346
 C         -2.4266625002       -0.5613990967       -2.5385550692
 C         -1.0864860407       -0.8162740422       -2.7423872941
 C         -0.1244587014       -0.1560582750       -1.9856256703
 N          1.2520738941       -0.4359199033       -2.1836381765
 C          1.7578097176       -1.6689509406       -1.7977480383
 C          0.9236018816       -2.6293025071       -1.2172446012
 C          1.4214895396       -3.8507247513       -0.8109934039
 C          2.7637399814       -4.1476152186       -0.9739263873
 C          3.5959952325       -3.2032683182       -1.5453661974
 C          3.1135341834       -1.9704820264       -1.9585809490
 C          4.0879661764       -0.9833636818       -2.5489406113
 C          4.8957377390       -1.5964352794       -3.6746591198
 C          4.4383791832       -2.1350378820       -4.8563846115
 C          5.3656222971       -2.6354817077       -5.7609950902
 C          6.7229938018       -2.5915852081       -5.4820360014
 C          7.1883106434       -2.0488207824       -4.2946231163
 C          6.2682608375       -1.5499437037       -3.3877127379
 C          6.4496684029       -0.9321099648       -2.0819521716
 C          7.6014340132       -0.6042235424       -1.3823343852
 C          7.4450420785        0.0203576784       -0.1535151363
 C          6.1696676435        0.2752781969        0.3731098153
 C          5.0230103175       -0.0340699743       -0.3298367205
 C          5.1817139192       -0.6296916991       -1.5629863785
 C          6.2746085627        0.9765185037        1.7189414723
 C          7.7658974996        1.1611948110        1.8448448743
 C          8.4705626243        1.7783788972        2.8562920505
 C          9.8571350295        1.8002868805        2.7840968273
 C         10.5209355618        1.2071167974        1.7207760134
 C          9.8176392337        0.5840253935        0.7020573695
 C          8.4340318737        0.5632474184        0.7657221536
 C          5.7191829473        0.0901064332        2.8071831814
 C          6.5172823834       -0.8112498650        3.4932655383
 C          5.9800752912       -1.6461323976        4.4567930751
 C          4.6287174130       -1.5725643401        4.7485583520
 C          3.8219467479       -0.6778123393        4.0752586747
 C          4.3530322671        0.1495458084        3.0848450211
 N          3.5269791794        1.0614635251        2.4266904434
 C          2.1680803024        0.7144674608        2.3053363938
 C          1.1313441374        1.5274522885        2.7622485902
 C         -0.1823507539        1.1326250219        2.6025434453
 C         -0.4845649559       -0.0994103116        2.0276532197
 C         -1.8683629182       -0.5387849709        1.8787488775
 N         -2.8388198187        0.3529923178        2.0356015460
 C         -4.0792766755       -0.1173945991        1.9275650117
 C         -5.1804224251        0.8386325451        2.0158396374
 C         -4.9157783741        2.2051474002        2.0670987724
 C         -5.9549362537        3.1076547392        2.1648321544
 C         -7.2638571354        2.6547922470        2.2103768945
 C         -7.5324611267        1.2964693688        2.1524101954
 C         -6.4973552406        0.3880866075        2.0523295770
 N         -4.3716166288       -1.4056236565        1.7753851247
 C         -3.3377475857       -2.2234888739        1.6238144841
 C         -3.6491566427       -3.6815306490        1.4542827334
 C         -2.4010854622       -4.5415410619        1.2585001169
 C         -1.5724323807       -4.6410621907        2.5363325623
 C         -2.4212517599       -5.1528918120        3.6948885921
 C         -3.6206340300       -4.2359215589        3.9119261806
 C         -4.4746012269       -4.1733751678        2.6502991410
 N         -2.0756821310       -1.8272710422        1.6127416308
 C          0.5537630701       -0.9383622806        1.6257255995
 C          1.8608331173       -0.5293664258        1.7456549290
 C          4.0860496302        2.2016928339        1.8499126313
 C          3.3136279640        3.2972531238        1.4670476885
 C          3.9068026792        4.4423419385        0.9700871148
 C          5.2811311895        4.5213582097        0.8425603453
 C          6.0504837598        3.4115585803        1.1450745926
 C          5.4702110117        2.2504917663        1.6250833038
 C          3.4132190055        0.2888969894       -3.0083050915
 C          4.1821726705        1.2587858745       -3.6334062117
 C          3.6261619996        2.4447095322       -4.0745075512
 C          2.2703352367        2.6593599036       -3.8978581814
 C          1.4902003537        1.7053920869       -3.2775218232
 C          2.0489936073        0.5133540043       -2.8068769185
 C         -0.5230308779        0.7852390819       -1.0433541629
 C         -1.8642258619        1.0432758162       -0.8370270049
 H         -9.1457884596        4.2809385501       -0.0196769273
 H         -9.3587237069        4.1689884484       -1.7750004339
 H         -9.6020008344        5.7044235495       -0.9509441781
 H         -6.0864888571        6.4431019317       -0.1364575024
 H         -7.7510589085        7.0124857987       -0.0545362627
 H         -7.2384444527        5.6381747863        0.9273496268
 H         -7.6513655516        5.1982198339       -3.3292476608
 H         -8.0633577469        6.7355569652       -2.5630545007
 H         -6.3790445397        6.2320774253       -2.6840250461
 H         -4.8418527448        5.1319601697       -1.4183306171
 H         -3.2861631300        3.2711199752       -1.5258873743
 H         -8.1503560874        2.4536730729       -0.9413570405
 H         -8.4924342822       -0.1646797923       -0.7328731445
 H        -10.0807166640       -3.1206465857        0.9987881931
 H         -9.4886889547       -1.4687612582        0.8300456205
 H         -8.4566845215       -2.7018680091        1.5518874141
 H         -9.9896552901       -1.5497519519       -1.6789169244
 H         -9.2833401899       -2.8260560577       -2.6664052357
 H        -10.5705894795       -3.2051900390       -1.5182082642
 H         -9.2489049998       -4.9316055902       -0.4216279147
 H         -7.6179418602       -4.6349030033        0.1684074762
 H         -7.9419571754       -4.6907858014       -1.5745707003
 H         -6.0147851899       -3.6421433043       -1.0432880606
 H         -4.0382345358       -2.2653302447       -1.3470149620
 H         -3.1703661426       -1.0581173781       -3.1424836432
 H         -0.7758631618       -1.5285804603       -3.4927038363
 H         -0.1232935281       -2.4119834212       -1.0773449437
 H          0.7552218574       -4.5726147732       -0.3613747810
 H          3.1579161954       -5.1009204360       -0.6575147967
 H          4.6466897072       -3.4176782215       -1.6756234422
 H          3.3804921243       -2.1676282062       -5.0743388738
 H          5.0258990585       -3.0631804694       -6.6927244677
 H          7.4267230623       -2.9858071721       -6.2005336759
 H          8.2469339508       -2.0171475682       -4.0827052097
 H          8.5813937907       -0.8065823735       -1.7876246656
 H          4.0378674193        0.2003675773        0.0401775673
 H          7.9530150578        2.2355372711        3.6873990891
 H         10.4249751012        2.2826747876        3.5659007085
 H         11.6003240911        1.2323926812        1.6866993730
 H         10.3398261455        0.1240238139       -0.1237725947
 H          7.5701620659       -0.8667202725        3.2624480506
 H          6.6136137142       -2.3481716922        4.9766045334
 H          4.1996416081       -2.2095846480        5.5073747817
 H          2.7713912886       -0.6142154020        4.3152897674
 H          1.3559430452        2.4491148805        3.2772481934
 H         -0.9900880351        1.7588045039        2.9486386035
 H         -3.8910234403        2.5394669061        2.0331886368
 H         -5.7441493932        4.1658583740        2.2071707553
 H         -8.0765031199        3.3618705566        2.2966977347
 H         -8.5539937058        0.9468905943        2.1894873027
 H         -6.6827456995       -0.6721582824        1.9980060787
 H         -4.2834094734       -3.7523410596        0.5654667501
 H         -2.7154709654       -5.5422669487        0.9515563161
 H         -1.7911951666       -4.1137947760        0.4619260194
 H         -0.7240918277       -5.3092194269        2.3708013944
 H         -1.1835534142       -3.6528183889        2.7798378402
 H         -1.8183355537       -5.2005252155        4.6042473757
 H         -2.7748704014       -6.1634276564        3.4741697823
 H         -3.2683517565       -3.2322792533        4.1611423382
 H         -4.2242796181       -4.5968233640        4.7477740890
 H         -5.3185129411       -3.4976501889        2.7962909353
 H         -4.8627080863       -5.1696507976        2.4266014893
 H          0.3162769128       -1.9026090314        1.2098123018
 H          2.6604404403       -1.1789116302        1.4205756354
 H          2.2395954597        3.2543851508        1.5316913729
 H          3.2848235935        5.2772885447        0.6834658767
 H          5.7478785665        5.4217813260        0.4744898092
 H          7.1176590196        3.4347064656        0.9825105172
 H          5.2366544945        1.0746011206       -3.7753330024
 H          4.2419899419        3.1882734968       -4.5560926173
 H          1.8125692829        3.5724677514       -4.2484937056
 H          0.4321661169        1.8806792091       -3.1613923141
 H          0.2265345113        1.3073543657       -0.4682357681
 H         -2.1707966635        1.7488779066       -0.0816882987
  171
  -249.213909385700       0.232741660484659      !
 C         -8.9734484260        4.8519854807       -0.9461734352
 C         -7.4960130974        5.2108554088       -1.1285996363
 C         -7.0892464139        6.1403524589        0.0227235306
 C         -7.3473931299        5.9499480443       -2.4668208271
 C         -6.5957161312        3.9836525139       -1.1427881446
 C         -5.2144590259        4.1561058453       -1.2977051968
 C         -4.3271532921        3.1003341861       -1.3620989026
 C         -4.8345472091        1.8149910560       -1.2589640113
 C         -6.2220768623        1.6153756170       -1.1047740318
 C         -7.0915298125        2.6945558557       -1.0450519038
 C         -6.4305588011        0.1952739120       -1.0733363175
 C         -7.5592129906       -0.5904519140       -0.8837882196
 C         -7.4388374159       -1.9691658470       -0.8553819157
 C         -8.6197152069       -2.8939437857       -0.5999929064
 C         -9.9350836091       -2.1312275999       -0.4207996641
 C         -8.7845143034       -3.8555455372       -1.7851860646
 C         -8.3522905626       -3.6918936344        0.6846428737
 C         -6.1707858508       -2.5336692587       -1.0408662300
 C         -5.0341417864       -1.7765248535       -1.2346878554
 C         -5.1643193098       -0.3973422149       -1.2470310492
 N         -4.2015777590        0.5896175550       -1.3516175244
 C         -2.8407265653        0.3645557949       -1.5654635153
 C         -2.4370245695       -0.5565222210       -2.5317760975
 C         -1.0969336902       -0.8154598636       -2.7319076471
 C         -0.1348923941       -0.1579226920       -1.9729221662
 N          1.2420081162       -0.4340035035       -2.1731381894
 C          1.7517133576       -1.6684277280       -1.7972282404
 C          0.9213357302       -2.6346297440       -1.2208302275
 C          1.4231441832       -3.8583862744       -0.8264497920
 C          2.7653916454       -4.1514800796       -0.9960494721
 C          3.5940939478       -3.2006679126       -1.5618204088
 C          3.1077381159       -1.9657031997       -1.9637937614
 C          4.0786352597       -0.9722973724       -2.5491881511
 C          4.8807957763       -1.5735715021       -3.6853105076
 C          4.4174205504       -2.0997477002       -4.8702772790
 C          5.3401165116       -2.5893842474       -5.7854041603
 C          6.6989705853       -2.5470626145       -5.5134930420
 C          7.1703137948       -2.0169775790       -4.3227391544
 C          6.2548227047       -1.5289974823       -3.4053260424
 C          6.4429250792       -0.9234137227       -2.0947457956
 C          7.5981164075       -0.5981475072       -1.3995345055
 C          7.4478312063        0.0203300505       -0.1668240664
 C          6.1751762471        0.2713096193        0.3682490579
 C          5.0250575727       -0.0377910056       -0.3291566601
 C          5.1775820148       -0.6267435947       -1.5662362620
 C          6.2866243075        0.9746262745        1.7125438443
 C          7.7783777270        1.1610119013        1.8300795417
 C          8.4879295549        1.7789031716        2.8377377910
 C          9.8741098687        1.8010908163        2.7586612037
 C         10.5327833478        1.2076011442        1.6922890868
 C          9.8245424850        0.5845259679        0.6769652839
 C          8.4412864800        0.5634279682        0.7475161962
 C          5.7371642322        0.0938311484        2.8081439871
 C          6.5393497893       -0.8009635874        3.4981060796
 C          6.0071899874       -1.6288334712        4.4704664211
 C          4.6568977076       -1.5550821033        4.7671474929
 C          3.8460283526       -0.6671160813        4.0897792029
 C          4.3721048140        0.1532308825        3.0909566256
 N          3.5416679620        1.0587518033        2.4292614728
 C          2.1848369948        0.7037744236        2.3085970277
 C          1.1428987484        1.5142316891        2.7581214944
 C         -0.1683229835        1.1115987093        2.5978016330
 C         -0.4630568719       -0.1250844243        2.0288934576
 C         -1.8444267589       -0.5695233968        1.8731797876
 N         -2.8184681648        0.3182316922        2.0327405937
 C         -4.0566367251       -0.1538472262        1.9096282175
 C         -5.1611452127        0.7976636076        2.0054046375
 C         -4.9016278739        2.1644924327        2.0703821775
 C         -5.9442788707        3.0623189925        2.1736825429
 C         -7.2516157283        2.6044066578        2.2109684983
 C         -7.5152528445        1.2456920952        2.1403891028
 C         -6.4765211615        0.3420800792        2.0349766013
 N         -4.3449480828       -1.4401633862        1.7356365332
 C         -3.3084208916       -2.2549653289        1.5889191895
 C         -3.6093924605       -3.7126438251        1.3947440078
 C         -2.3491050920       -4.5753819825        1.3413989169
 C         -1.6626955534       -4.6518535075        2.7021192420
 C         -2.6300020978       -5.1535585657        3.7689142267
 C         -3.8522263244       -4.2437441482        3.8422622612
 C         -4.5622158846       -4.1973193801        2.4935760413
 N         -2.0465812374       -1.8565385441        1.5969124487
 C          0.5804761277       -0.9617637322        1.6358058328
 C          1.8851345260       -0.5456114355        1.7570240298
 C          4.0967389224        2.1971440497        1.8447180780
 C          3.3211716394        3.2889110475        1.4576417410
 C          3.9109243844        4.4323317714        0.9526710744
 C          5.2848237672        4.5135776050        0.8218213647
 C          6.0572405062        3.4070789632        1.1288445456
 C          5.4803525018        2.2474623378        1.6162853448
 C          3.4009564281        0.3041364344       -2.9922644628
 C          4.1679291744        1.2827390167       -3.6062188442
 C          3.6097486244        2.4727973477       -4.0330523875
 C          2.2534402909        2.6823384510       -3.8541062062
 C          1.4753268253        1.7196191818       -3.2448266355
 C          2.0365074234        0.5235882949       -2.7871585119
 C         -0.5336443123        0.7815917467       -1.0288476904
 C         -1.8744900713        1.0433215358       -0.8260089282
 H         -9.1338360193        4.3215267566       -0.0104329287
 H         -9.3312916783        4.2373220636       -1.7689590143
 H         -9.5689749316        5.7627017857       -0.9241707206
 H         -6.0502373027        6.4466066990       -0.0608151611
 H         -7.7086201978        7.0352043626        0.0188342732
 H         -7.2216217045        5.6344361857        0.9762381861
 H         -6.3290134374        6.2980969822       -2.6158148687
 H         -7.6043017963        5.2882513181       -3.2916462346
 H         -8.0101095933        6.8125367501       -2.4965998571
 H         -4.8127590124        5.1542204021       -1.3854402200
 H         -3.2731853856        3.2813984578       -1.5109996597
 H         -8.1446027327        2.5000589084       -0.9357676564
 H         -8.5083483340       -0.1018892141       -0.7439182791
 H        -10.7438420335       -2.8375917721       -0.2435169668
 H        -10.1790478675       -1.5576180865       -1.3121097780
 H         -9.8834188926       -1.4593892880        0.4328972714
 H         -8.9464028199       -3.2951310365       -2.7037023983
 H         -7.9042599551       -4.4783967659       -1.9177722650
 H         -9.6402178055       -4.5080012247       -1.6237968217
 H         -9.1889634331       -4.3539440770        0.8985160158
 H         -8.2242693899       -3.0147243034        1.5267764219
 H         -7.4534691843       -4.2951621741        0.5960774114
 H         -6.0674986785       -3.6080608522       -1.0281137072
 H         -4.0713935322       -2.2504637570       -1.3534259028
 H         -3.1802659465       -1.0501134587       -3.1388987194
 H         -0.7865600088       -1.5276298224       -3.4824548009
 H         -0.1252862524       -2.4199632850       -1.0745111437
 H          0.7602633223       -4.5858967096       -0.3807118978
 H          3.1622329692       -5.1066658557       -0.6888050545
 H          4.6448961103       -3.4116498346       -1.6966621478
 H          3.3583831143       -2.1302826924       -5.0830008281
 H          4.9956731758       -3.0063276023       -6.7202774980
 H          7.3991324741       -2.9322288461       -6.2403307283
 H          8.2300544697       -1.9868421652       -4.1162243150
 H          8.5761026714       -0.7960448821       -1.8117989777
 H          4.0414926228        0.1933919060        0.0469057248
 H          7.9744066604        2.2361218725        3.6713129125
 H         10.4456825700        2.2837079033        3.5375872882
 H         11.6119822097        1.2327288851        1.6530500140
 H         10.3426848611        0.1244189551       -0.1513490788
 H          7.5914288120       -0.8566685115        3.2637358520
 H          6.6439571115       -2.3254177065        4.9936498330
 H          4.2320322768       -2.1862124961        5.5331950744
 H          2.7962029854       -0.6032023650        4.3329269034
 H          1.3614981758        2.4402599711        3.2678333833
 H         -0.9801347010        1.7358424895        2.9377400084
 H         -3.8780386829        2.5028569207        2.0418380155
 H         -5.7375376909        4.1208711771        2.2258554977
 H         -8.0671623245        3.3077149263        2.3001803530
 H         -8.5359719246        0.8929173793        2.1695903866
 H         -6.6564531468       -0.7187338761        1.9704335584
 H         -4.1388177769       -3.7870427156        0.4395949217
 H         -2.6300571534       -5.5812085049        1.0194667781
 H         -1.6584929997       -4.1585252879        0.6079178247
 H         -0.7977507777       -5.3161470929        2.6391660195
 H         -1.3059096991       -3.6578158513        2.9714430038
 H         -2.1293781978       -5.1851318345        4.7390405491
 H         -2.9507850612       -6.1695915475        3.5246253402
 H         -3.5369438222       -3.2351395552        4.1193455005
 H         -4.5420573499       -4.6019308042        4.6097006471
 H         -5.4176920359       -3.5230120560        2.5386064939
 H         -4.9198920260       -5.1972627710        2.2381880768
 H          0.3484355571       -1.9298141805        1.2257059735
 H          2.6888939478       -1.1934420881        1.4389010794
 H          2.2473578443        3.2441385884        1.5247576782
 H          3.2865469456        5.2641559693        0.6622381835
 H          5.7488116298        5.4127931675        0.4473513870
 H          7.1240159108        3.4315174974        0.9637130269
 H          5.2226376572        1.1020057187       -3.7507613634
 H          4.2240682033        3.2231891473       -4.5058505896
 H          1.7935572962        3.5982943448       -4.1943708395
 H          0.4169354120        1.8916084141       -3.1275136897
 H          0.2158126963        1.3004469291       -0.4507052387
 H         -2.1809451376        1.7482039595       -0.0700279261
