101
 energy: -159.805578054963 gnorm: 0.000041658521 xtb: 6.7.1 (edcfbbe)
N          -11.15163273585129       -7.10703964949902       -0.54671498023469
C          -10.21289951599224       -6.45111446949345       -0.48521841860798
C           -9.05652054677357       -5.64353766694410       -0.40990648067352
C           -9.03005798974478       -4.53649383035451        0.43969095174328
C           -7.89845800932461       -3.75168305453044        0.50753144852516
C           -6.77197859842129       -4.05022004943549       -0.26037495862795
C           -5.56690930674685       -3.21426046066322       -0.18250113997307
C           -4.29623092711902       -3.80770623344152       -0.16745468787788
C           -3.17619687467399       -3.02234924689210       -0.10050744821112
C           -3.28707275132608       -1.62824111027941       -0.05190573801276
C           -4.55393237673671       -1.00122974953464       -0.05466936235513
C           -5.67607278139605       -1.83578062177366       -0.12472991220142
C           -4.65210301143271        0.44658527373716        0.03122562716407
C           -5.89138801335535        1.09136256713955        0.09688427539725
C           -6.01498760364749        2.46316197547508        0.22795736764888
C           -7.34045985811297        3.09072991709275        0.28865239038424
C           -8.37271375115721        2.65247281509722       -0.54236559318804
C           -9.61866470289465        3.24074601063965       -0.49418706493292
C           -9.85790060458834        4.28642102977794        0.39881870233027
C          -11.13176793721856        4.89443637605163        0.45332795103438
N          -12.16509295244063        5.38975361025818        0.49747801029256
C           -8.83441749711833        4.73157908718264        1.23699432217048
C           -7.59143297862523        4.13826756667271        1.17598968030192
C           -4.85338012052990        3.23963545472302        0.31504845684878
C           -3.62029983000136        2.64691809420810        0.23829833640962
C           -3.48501370682410        1.25959325315659        0.07816323896524
C           -2.23133731773701        0.59521576141864       -0.00713382207710
C           -2.13530623750804       -0.79705499113572       -0.01983901084345
N           -0.83354869457979       -1.17894619936820       -0.02177435703225
C           -0.13028562836953       -0.07321599330189       -0.02727813454946
C            1.32180198110163       -0.06526115847921       -0.04423919149348
C            2.07616794822931        0.90121753560501       -0.70774625551181
C            3.45439727131457        0.84166239592166       -0.69097218648827
C            4.12459682396315       -0.18390468130411       -0.02538110515567
C            5.58958055850610       -0.23854017894558       -0.01158794449982
C            6.35017043289948        0.92395158031748        0.11206644054338
C            7.72729047671567        0.87591828538925        0.13073296765587
C            8.39563346603034       -0.34367927911215        0.00924538816053
N            9.78985488233962       -0.39598633343128        0.01889123436810
C           10.44835330535349       -1.47980195853479        0.61359980273781
C            9.95331407434214       -2.05195719758003        1.78506092189561
C           10.60553918830995       -3.12201873705955        2.36598731473642
C           11.76126371512447       -3.63229851207645        1.79779269210304
C           12.25984015839323       -3.06414058668341        0.63694228634001
C           11.61013419646226       -1.99930744539695        0.04365585012157
C           10.53664133110230        0.63157165446048       -0.57054616811747
C           10.09948690779827        1.23932964430711       -1.74717843398852
C           10.84015531654574        2.25300093923491       -2.32317667064414
C           12.02753224708934        2.67089503201718       -1.74486865385515
C           12.46853664121575        2.06708577943445       -0.57869875079159
C           11.73077976727126        1.05839964334551        0.00964242268835
C            7.63956841783385       -1.50988975786488       -0.12228495142035
C            6.26275942649820       -1.45490659154961       -0.12426961010395
C            3.36393653844867       -1.16302903362840        0.61505024245272
C            1.98773205270474       -1.10677568193131        0.60477388954130
N           -0.93189256627624        1.04847848547058       -0.02171509808134
C           -0.46613701561248        2.37868310924538       -0.02027784234384
C            0.27663683610257        2.84556799751941        1.05739888051793
C            0.76308572719006        4.14039961875106        1.04271898810717
C            0.51053223356958        4.96811733532825       -0.03855416217385
C           -0.23068117122361        4.50087364698093       -1.11224631084569
C           -0.71817269147700        3.20706912812957       -1.11000526127963
C           -6.80960897168853       -5.16147536859909       -1.10387713748439
C           -7.93669407750658       -5.95136117935611       -1.18427544448201
H           -9.89699175825490       -4.30520172928338        1.04132007462585
H           -7.87502522786044       -2.90762689066579        1.18116888523583
H           -4.20925736532542       -4.88385879398794       -0.18781067035799
H           -2.18557435537423       -3.44917966895912       -0.08867177258891
H           -6.66699036723275       -1.41162395659325       -0.16390013387968
H           -6.79800833702521        0.50822492270164        0.07831911981074
H           -8.18604148395353        1.85669558548984       -1.24843740686643
H          -10.41227537841823        2.90243782895652       -1.14426359082931
H           -9.02562098036668        5.53794163593425        1.92988678689362
H           -6.80734094455744        4.47432945456250        1.83823593854393
H           -4.92922910423133        4.31161711385741        0.42055560297787
H           -2.73718483810996        3.26067022317630        0.31559020669206
H            1.59057590588924        1.68837985854144       -1.26434190307968
H            4.02197846667091        1.58793537962502       -1.22732938454386
H            5.85300508552767        1.87590035491612        0.22841646582273
H            8.29939539175639        1.78482190513930        0.24688082193281
H            9.05822166350122       -1.64870187958146        2.23581741886745
H           10.21282190952884       -3.55474521312681        3.27439471202714
H           12.26991146803411       -4.46646803838480        2.25654281890493
H           13.15763958709914       -3.45844660895134        0.18411477909913
H           11.99558038799924       -1.56382529742556       -0.86667312371504
H            9.17976416274184        0.90723964909791       -2.20633878450183
H           10.49174495337836        2.71345744370480       -3.23606408026465
H           12.60538871736413        3.46076615051519       -2.20010967610456
H           13.39081310309482        2.38940525098661       -0.11814038156313
H           12.07220635038062        0.59497191546858        0.92373330866604
H            8.14354015610249       -2.45903383285228       -0.23113535341244
H            5.69781199454109       -2.36659344684565       -0.25042580445453
H            3.86162850364699       -1.96291979210918        1.14304403112214
H            1.39930482392689       -1.86296557166060        1.10057950324878
H            0.47053250120001        2.19026691925523        1.89345346500017
H            1.34007521009342        4.50320717344523        1.87973654295455
H            0.89196960350275        5.97779906622271       -0.04632855672862
H           -0.42642683069861        5.14376375050151       -1.95718866945230
H           -1.29405432273617        2.83018173111889       -1.94288007804649
H           -5.95088715337990       -5.39296950819724       -1.71644178821542
H           -7.96314351681423       -6.80691209764212       -1.84323817751797
