101
 energy: -159.728230659995 gnorm: 0.000100664309 xtb: 6.7.1 (edcfbbe)
N          -10.83464015774196       -7.35648665824081       -0.51375768286494
C           -9.92475588194295       -6.66062479649400       -0.45024925180134
C           -8.80339446183582       -5.80676601621860       -0.37283458556871
C           -8.84596259336407       -4.66308391638965        0.42748431942622
C           -7.74759405435338       -3.83367728824971        0.49744335331026
C           -6.58315896887059       -4.12219490160466       -0.21806460225382
C           -5.41355952902718       -3.24134000419059       -0.13585777268474
C           -4.12445092219860       -3.78053273891994       -0.07909288999413
C           -3.03692116400771       -2.94454527118170       -0.00919821844247
C           -3.20535734247683       -1.55684373399546        0.00396345165313
C           -4.49595417564077       -0.98132443513321       -0.03540834019193
C           -5.57769689037785       -1.85980942800721       -0.11221398930707
C           -4.65531964493467        0.46839108840178        0.01526705267051
C           -5.90919040646671        1.05488559663437        0.06591109392678
C           -6.11048283661026        2.43612981609411        0.15850949094340
C           -7.44929686127845        2.99474783918962        0.20992862780048
C           -8.51965440330885        2.37773390279868       -0.45740479298163
C           -9.78738968841327        2.90615241337841       -0.41496890001005
C          -10.03570160558058        4.07799795547618        0.30990738544759
C          -11.33204323425612        4.62254669019310        0.35986487825665
N          -12.39011405363021        5.06869490237828        0.40104134239726
C           -8.97996959651234        4.70408990553957        0.98369595264939
C           -7.71439986598697        4.17198692090674        0.92763072935093
C           -4.97012848442208        3.26292523737657        0.21531232444251
C           -3.71762987812025        2.72978445138371        0.15171368089475
C           -3.50562119039166        1.33263000065758        0.04051175091663
C           -2.24283091524449        0.73409412534504       -0.00968208184385
C           -2.08174247238938       -0.68490388980804        0.03248736551163
N           -0.79888460293410       -1.01585326599743        0.08046670471762
C           -0.09691007321654        0.12468558322326        0.03402686191219
C            1.31008692256018        0.12560543275920       -0.00884697179924
C            2.12815160999818        1.22964081350811       -0.36341189604712
C            3.48807031952462        1.12443786589235       -0.36510397655998
C            4.15277682608727       -0.07953148005774       -0.03188585900956
C            5.58741579578711       -0.17015180855000       -0.02439360555201
C            6.39860714453431        0.96741310167150        0.16897194194499
C            7.76674583230155        0.88457766835895        0.18054081474258
C            8.41175863523901       -0.34642072028396       -0.00524111637385
N            9.79908725783326       -0.43387045521781        0.00494551625175
C           10.42735080090309       -1.57234000268216        0.52278233974826
C            9.90897129995473       -2.21363582384934        1.64858789003369
C           10.53143331719249       -3.33773540245439        2.15429696626955
C           11.67685700800551       -3.83570077718199        1.55378334498230
C           12.19724523171764       -3.19988873034769        0.43772056450805
C           11.58001751137107       -2.07804964171872       -0.07947315208877
C           10.57466942553469        0.61423949187976       -0.50278789723415
C           10.15629224626807        1.31957559129147       -1.63199121070871
C           10.92516918975581        2.35388577176837       -2.12779919121856
C           12.11930078678037        2.69753243137872       -1.51416996160205
C           12.54056390799378        1.99746811950284       -0.39473669541912
C           11.77703020609332        0.96482587828427        0.11272815977392
C            7.62089959587828       -1.48766117339480       -0.20097182372786
C            6.25316748216708       -1.39991830437188       -0.20786171912941
C            3.33219660993991       -1.19252388208045        0.27795870632029
C            1.97503264357025       -1.09765185095554        0.28844698121906
N           -0.96131804677443        1.23314128456875       -0.01569052995621
C           -0.57285380944081        2.58445251137855        0.00379882972176
C            0.04908639545286        3.10919619844806        1.13344414086455
C            0.43994985677106        4.43514002975352        1.14625314743657
C            0.21327668360336        5.24077083957318        0.04174884211560
C           -0.40725095718731        4.71822426188701       -1.08225751104865
C           -0.80099122924900        3.39341203512822       -1.10730170679420
C           -6.55202665004217       -5.27059045132039       -1.01265078552461
C           -7.64589819065673       -6.10439939007653       -1.09565855324255
H           -9.74091895305520       -4.43907629719363        0.98946188552715
H           -7.77899683125585       -2.96226780223826        1.13478994246394
H           -3.99004462464555       -4.85176901350474       -0.06896318016887
H           -2.03057367026936       -3.33074735979178        0.03260994043276
H           -6.58351369679104       -1.47827232537024       -0.18599192352651
H           -6.78614224487058        0.42850065679086        0.07962947250766
H           -8.33988106564876        1.48989517960445       -1.04543161163889
H          -10.59976936296642        2.42782322932829       -0.94296260409925
H           -9.17274789469809        5.60414422234389        1.54961032524978
H           -6.91672650355676        4.65258717621559        1.47401632782642
H           -5.08820273935383        4.33394476780390        0.28019528379092
H           -2.86427783472012        3.38610130802046        0.20138347806024
H            1.67683720611184        2.15631233693733       -0.67853139951667
H            4.07101469849792        1.97772828295816       -0.67831224666081
H            5.93610145390030        1.92351233045612        0.35864481738959
H            8.36129456099689        1.76893837770750        0.35897141320924
H            9.02455958199945       -1.81701808126409        2.12502959623105
H           10.12413948192294       -3.82331859706557        3.02846792327500
H           12.16121491820105       -4.71334016627322        1.95330244085270
H           13.08623139383590       -3.58521401809650       -0.03882565026217
H           11.97902104010218       -1.59023314410340       -0.95667145513891
H            9.23321064719543        1.04200958626848       -2.11920473496637
H           10.59393486830892        2.88968032002203       -3.00480630275578
H           12.71816545751040        3.50508456225108       -1.90623837336206
H           13.46722995991627        2.26270572727921        0.09191123836346
H           12.10000685027079        0.42775788216021        0.99242522920272
H            8.10313768173077       -2.43924163437210       -0.37191230400175
H            5.67836171803937       -2.29119835161454       -0.40459909482570
H            3.79373089920486       -2.12879146332107        0.55247473387145
H            1.35971575218399       -1.94548200211895        0.54335375871173
H            0.22440917722889        2.47089169866419        1.98662429091755
H            0.92021369766769        4.84180430263532        2.02347095660282
H            0.51975249020797        6.27561961479451        0.05611547683000
H           -0.58257714148781        5.34378505151522       -1.94460440182524
H           -1.28526171827876        2.97529760893368       -1.97767304854415
H           -5.66578454699781       -5.49512232135504       -1.58741522143145
H           -7.61872350577930       -6.98734687281879       -1.71743366228074
