101
 energy: -159.805527782088 gnorm: 0.000172305568 xtb: 6.7.1 (edcfbbe)
N          -11.67850180178587       -7.30955679655135       -0.18253866465803
C          -10.74543460735105       -6.64354267683492       -0.15028029515711
C           -9.59602487663160       -5.82359421559011       -0.11034076956423
C           -8.53732394492934       -6.14380276426670        0.74112698685029
C           -7.41601632255634       -5.34226393540122        0.77196030052107
C           -7.32410332133477       -4.20706948731282       -0.03465437261618
C           -6.12445647034902       -3.36049179660473        0.00311999433163
C           -4.85101276325854       -3.94462907948256        0.06738595849495
C           -3.73499933954866       -3.15076355925180        0.08119341794752
C           -3.85345812882829       -1.75689176641637        0.04633160537965
C           -5.12399228538749       -1.13827287406193        0.00667686796854
C           -6.24112500989818       -1.98168547097103       -0.02578925595377
C           -5.23023256468915        0.31149115520046        0.02001456652502
C           -6.47203578798475        0.95175056746696        0.08401779662850
C           -6.60185720679556        2.32817020240072        0.13487234359935
C           -7.92803816303194        2.95396340186883        0.19876189056487
C           -8.93971152180558        2.40456359852781        0.98778575935433
C          -10.18452864281962        2.99363568291405        1.05385396041134
C          -10.44339314440087        4.15280516156187        0.32077992212413
C          -11.71606252003298        4.76256945227915        0.38374866512926
N          -12.74816086955525        5.25971720538813        0.43438249380497
C           -9.44036459927445        4.71040199523141       -0.47372243354007
C           -8.19829288202414        4.11464922462272       -0.52765341294740
C           -5.44403840403577        3.11539083599844        0.14041438208364
C           -4.20869733089703        2.52563667358663        0.08082796477266
C           -4.06790031876215        1.13204297653281       -0.00132876157482
C           -2.81146814059009        0.47022294777044       -0.06271149601560
C           -2.70652399960855       -0.91881068665694        0.02108714116788
N           -1.40180245823546       -1.29199241932983        0.03822559988699
C           -0.70674246332805       -0.18522456274763       -0.05070712974602
C            0.74562641907626       -0.16400633765146       -0.07495339643742
C            1.48372698133914        0.73209459983045       -0.84638155274582
C            2.86274606427047        0.69338118027935       -0.83028142633370
C            3.54968733761372       -0.23939005538576       -0.05394114025451
C            5.01533129108080       -0.27062067061411       -0.03458930248884
C            5.75993444532918        0.90846246381011       -0.06599075909355
C            7.13752306989513        0.88286415175816       -0.03600491699929
C            7.82261251648545       -0.33224993192263        0.01457014290181
N            9.21753837441169       -0.36395218650571        0.04400456706241
C            9.87987091398916       -1.33629686025841        0.80389726660304
C            9.37295731950536       -1.73181989386018        2.04143148583741
C           10.02857531622967       -2.69212155219976        2.78696539253856
C           11.19923729743118       -3.26600354997090        2.31886559205800
C           11.70914174380537       -2.87337547453735        1.09215626931986
C           11.05640306853880       -1.91990813637090        0.33527829419752
C            9.95758669630949        0.57384391752239       -0.68598611880485
C            9.52124483620099        0.99647241681103       -1.94140342145625
C           10.25486223474530        1.92207531033104       -2.65756987029489
C           11.43429590677689        2.43405820910604       -2.14205506565594
C           11.87410438407760        2.01442052673853       -0.89726570838134
C           11.14335511599246        1.09552112480919       -0.16960982744100
C            7.08329626937652       -1.51613465863093        0.03665668749361
C            5.70603889617059       -1.48151070802552        0.01836338054573
C            2.80444198836785       -1.14948608519362        0.69713005660585
C            1.42741955611457       -1.11604694243106        0.68450354773620
N           -1.51522545028416        0.92926695710339       -0.11992498331560
C           -1.05694351036284        2.25662857307303       -0.23441778658959
C           -0.27678486601193        2.80562174057677        0.77606928638403
C            0.20152135490630        4.09692131901688        0.64529287884863
C           -0.09620600453815        4.84014849169349       -0.48476640279881
C           -0.87427987226496        4.29095272373363       -1.49142580001900
C           -1.35354632205672        2.99954055547565       -1.37340326532032
C           -8.39032838299122       -3.89577309176132       -0.87968873245832
C           -9.51514056084507       -4.69195402379221       -0.92332328010975
H           -8.60604123001221       -7.01830811884886        1.37153550522606
H           -6.60554770556037       -5.58420548466995        1.44339546203539
H           -4.75664776583572       -5.02032721413323        0.07275807064547
H           -2.74189850975286       -3.57104493502394        0.10893039185031
H           -7.23557377691863       -1.56511808527056       -0.05633417403061
H           -7.37590452096829        0.36414293352629        0.08176210040002
H           -8.73771696716541        1.51939027383142        1.57275700627645
H          -10.96198549397387        2.56849135223781        1.67163488830510
H           -9.64661838514886        5.60532942382867       -1.04245717971527
H           -7.42954900918819        4.53995434544887       -1.15581097998717
H           -5.52454881681090        4.18898643624984        0.22437826559742
H           -3.32784604149297        3.14654037935820        0.11728050720946
H            0.98356510901975        1.44514378743320       -1.48447027939180
H            3.41743347664274        1.38110018024073       -1.45156419189801
H            5.25003845079317        1.86062873836723       -0.08028586803091
H            7.69701855175502        1.80691923881830       -0.04258469911795
H            8.46601121858405       -1.27779390055717        2.41334457018506
H            9.62670331462900       -2.98767219223136        3.74500737290328
H           11.71063122264101       -4.01356106232116        2.90593358695796
H           12.61856252116165       -3.31909280800522        0.71682690771661
H           11.45095913279660       -1.62203992467397       -0.62518277360081
H            8.60788087769762        0.58990202242596       -2.35064615997587
H            9.90731820337869        2.23846970874220       -3.63012999050677
H           12.00690338068590        3.15419706582473       -2.70647762329449
H           12.78999121889001        2.41173536394896       -0.48506742775625
H           11.48383395445280        0.77656157281198        0.80467104828303
H            7.60111235983141       -2.46378842752485        0.06087111303721
H            5.15503095839101       -2.41020184444595        0.01111179158368
H            3.31426789532396       -1.87554888109326        1.31282337192562
H            0.85184486515068       -1.82004221676966        1.26512945617897
H           -0.04837473595512        2.21647139842459        1.65166316144652
H            0.80739645504335        4.52348924668628        1.43018659867571
H            0.27856758021016        5.84759189404662       -0.58272903126330
H           -1.10520973972535        4.86764417155856       -2.37442246451935
H           -1.95777074651494        2.55900466690466       -2.15328649992250
H           -8.32344274463208       -3.03222216500703       -1.52509277456004
H          -10.33471909638596       -4.45076903255660       -1.58449917570607
