  111
       -156.16423977
 C         -9.0496470829        1.0758917972       -2.9034879139
 C         -8.5090311705       -0.3555578951       -2.8414166964
 C         -9.5884400733       -1.2451135536       -2.2069621560
 C         -8.2264185252       -0.8230827482       -4.2768797563
 C         -7.2327194087       -0.4648023825       -2.0233963951
 C         -6.6357349032       -1.7230364560       -1.8617573250
 C         -5.4827517361       -1.9177841820       -1.1290313894
 C         -4.9047922864       -0.8127004269       -0.5180622594
 C         -5.4670483155        0.4726300305       -0.6954130915
 C         -6.6238472002        0.6397632480       -1.4380502968
 C         -4.6022204371        1.3921830637       -0.0019779055
 C         -4.6301227150        2.7653503902        0.1797067397
 C         -3.6378965905        3.3812018558        0.9336988034
 C         -3.5942582979        4.8840325388        1.1585538577
 C         -3.7452174257        5.1700761626        2.6600268473
 C         -2.2475376853        5.4274311531        0.6576597553
 C         -4.7103278623        5.6237552933        0.4158477508
 C         -2.6488466982        2.5798861389        1.5205784077
 C         -2.5961215930        1.2111992007        1.3539499897
 C         -3.5661240611        0.6127803535        0.5608408898
 N         -3.7597857224       -0.7138853268        0.2404062695
 C         -2.9147561330       -1.7630033844        0.6099845802
 C         -3.4790476246       -2.9552399900        1.1429835482
 C         -2.6362074290       -3.9820515905        1.5500817492
 C         -1.2802883642       -3.8322348586        1.4369025677
 C         -0.6886463840       -2.6343882380        0.9171377073
 C         -1.5527109028       -1.6090848154        0.4926574284
 C          0.7175749156       -2.6294591936        0.9240748266
 C          1.5783103573       -1.6020070048        0.4989247350
 C          2.9403727741       -1.7435138792        0.6326077190
 N          3.7791918582       -0.6914419644        0.2585876993
 C          3.5593894308        0.6383824268        0.5478311355
 C          2.5700382321        1.2364471751        1.3169721951
 C          2.5943829441        2.6093551640        1.4508138784
 C          3.5747457015        3.4153268622        0.8558302741
 C          3.4968610380        4.9220040553        1.0417201926
 C          4.6156739552        5.6656339176        0.3071864293
 C          3.6057302924        5.2493289718        2.5383414711
 C          2.1519177291        5.4241775638        0.4950824634
 C          4.5878279354        2.8010174654        0.1287750284
 C          4.5876565590        1.4236292304       -0.0211185365
 C          5.4761350736        0.5043812778       -0.6846107593
 C          6.6366670742        0.6761244800       -1.4205304825
 C          7.2709014500       -0.4297260202       -1.9758058197
 C          8.5511724133       -0.3153489599       -2.7868471635
 C          8.2945605294       -0.8377772190       -4.2082621432
 C          9.6459350975       -1.1554158357       -2.1124149186
 C          9.0555261180        1.1268112131       -2.8925642514
 C          6.6960927243       -1.6948972284       -1.7901276159
 C          5.5389237331       -1.8941905002       -1.0651768554
 C          4.9343670106       -0.7866683955       -0.4851400703
 C          3.5078654296       -2.9258683814        1.1842877189
 C          2.6686990164       -3.9577141252        1.5862842135
 C          1.3129761506       -3.8203871141        1.4555543097
 S          0.0183920008       -4.9678025224        1.8892736209
 O          0.0311787190       -6.1369213745        1.0327954217
 O          0.0082582622       -5.2476868766        3.3112451674
 H         -9.2791935964        1.4515245944       -1.9087418137
 H         -9.9677058305        1.0906583188       -3.4871406344
 H         -8.3383383450        1.7440143926       -3.3839929004
 H        -10.5199246124       -1.1543667490       -2.7614366081
 H         -9.2946244143       -2.2910848322       -2.2071896583
 H         -9.7681377628       -0.9414747343       -1.1774848348
 H         -9.1262001919       -0.7352019164       -4.8818020113
 H         -7.4471339333       -0.2102746507       -4.7255815098
 H         -7.9004286437       -1.8591866158       -4.3014707027
 H         -7.0840643625       -2.5846870293       -2.3312202226
 H         -5.0391844001       -2.8979410651       -1.0478943242
 H         -7.0285540744        1.6313106930       -1.5517976618
 H         -5.4288410409        3.3318578128       -0.2685091729
 H         -3.7307438070        6.2429311883        2.8391464827
 H         -4.6891157079        4.7714820822        3.0260251733
 H         -2.9408311929        4.7183850807        3.2341706966
 H         -2.1158364420        5.1963814146       -0.3974512095
 H         -2.2103234349        6.5074037012        0.7818738858
 H         -1.4150760645        4.9957056975        1.2060820870
 H         -4.6181153265        6.6926908187        0.5959718814
 H         -4.6438094297        5.4574689244       -0.6570816634
 H         -5.6907293722        5.3103651702        0.7670589576
 H         -1.8924859985        3.0407302148        2.1365967081
 H         -1.8317437699        0.6256745217        1.8406491068
 H         -4.5450494088       -3.0246957471        1.2810629154
 H         -3.0428536841       -4.8937204665        1.9603353063
 H         -1.1483709130       -0.7095267187        0.0564957819
 H          1.1715995014       -0.7119301335        0.0460739340
 H          1.8120793460        0.6481855924        1.8102586266
 H          1.8211746355        3.0700518463        2.0455972040
 H          4.4991107472        6.7365744995        0.4597265524
 H          4.5771199511        5.4733033786       -0.7627757111
 H          5.5933692183        5.3790149134        0.6878194025
 H          3.5675180820        6.3259586482        2.6888797751
 H          2.7958854878        4.7980291720        3.1049614230
 H          4.5474128174        4.8780029929        2.9371648189
 H          2.0839676899        6.5044154713        0.6029201817
 H          2.0572313811        5.1758897645       -0.5600572999
 H          1.3145945445        4.9781296679        1.0243306778
 H          5.3812300154        3.3721607331       -0.3230488441
 H          7.0241080601        1.6722176375       -1.5532392427
 H          9.1961019594       -0.7415964660       -4.8092850278
 H          7.5006592310       -0.2642155779       -4.6823309416
 H          8.0010541182       -1.8837325289       -4.2020092345
 H          9.8154100478       -0.8069652765       -1.0955629412
 H          9.3735521977       -2.2062742724       -2.0711669003
 H         10.5774311481       -1.0679488677       -2.6671135802
 H          8.3299993911        1.7607202557       -3.3976395891
 H          9.9759801295        1.1456540296       -3.4722790113
 H          9.2708879008        1.5403390828       -1.9097051461
 H          7.1646791820       -2.5586411116       -2.2354654606
 H          5.1130388755       -2.8804940702       -0.9664271123
 H          4.5722753861       -2.9845889546        1.3384293854
 H          3.0779205957       -4.8632559463        2.0074200867
