  98
       -150.97229434
 C        -10.4448821329        3.5939930227        1.5534979909
 C        -10.3637890654        2.2483758850        1.2373157204
 C         -9.1483108803        1.6860982585        0.8961701700
 C         -7.9912579655        2.4620316384        0.8600290312
 C         -6.7009058126        1.8642213547        0.4966483060
 C         -6.3455714656        0.5956410617        0.9546998188
 C         -5.1347915546        0.0292793037        0.6205271920
 C         -4.2380203413        0.7129579787       -0.2034121963
 N         -3.0138113976        0.1548468881       -0.5590751101
 C         -1.8861633579        0.9798437371       -0.6948864727
 C         -1.6313885043        1.9933738917        0.2276380979
 C         -0.4906992832        2.7609193674        0.1177525081
 C          0.4137901280        2.5564886412       -0.9221938663
 C          1.6264791052        3.3813029245       -1.0278409132
 C          1.9761164843        3.9757855884       -2.2371264122
 C          3.1080357873        4.7638123774       -2.3297137600
 C          3.9138003576        4.9582804368       -1.2207926906
 C          3.5760254586        4.3680896644       -0.0148921480
 C          2.4386155854        3.5886545964        0.0839713079
 C          0.1398586860        1.5592743075       -1.8561041163
 C         -0.9877178793        0.7739553247       -1.7414511581
 C         -2.8409074058       -1.2279295806       -0.6682920652
 C         -3.8619976745       -2.0421136877       -1.1859024910
 C         -3.7089446758       -3.4088878900       -1.2719400554
 C         -2.5095808416       -3.9858673483       -0.8678314479
 C         -2.0120896347       -5.3282565314       -0.7921335124
 C         -2.5503857943       -6.5690857470       -1.1103627061
 C         -1.7749680226       -7.6948082879       -0.9208817033
 C         -0.4725934393       -7.5967726344       -0.4327859171
 C          0.0869068158       -6.3759050021       -0.1093280101
 C         -0.6933142970       -5.2414241014       -0.2788499259
 N         -0.3800488091       -3.9198314056       -0.0502930789
 C          0.8314672650       -3.3845811807        0.4154778182
 C          1.4111526193       -3.8372971736        1.5912694139
 C          2.5586045317       -3.2277379775        2.0802305884
 C          3.1452822301       -2.1553661831        1.4145361667
 N          4.1776982955       -1.4695462632        1.8948052266
 C          4.7411888731       -0.4643511772        1.2379164533
 C          5.7288148230        0.3419975286        1.9513140986
 C          6.6118251146       -0.2747170274        2.8378320715
 C          7.5221057527        0.4798123222        3.5523424792
 C          7.5575429191        1.8566699355        3.4031593423
 C          6.6665234674        2.4781703464        2.5412891571
 C          5.7553238027        1.7314569183        1.8220597257
 C          4.3131555969       -0.1809386023       -0.0807644403
 C          5.0269982993        0.6956476172       -1.0003384750
 C          6.4156916526        0.8407507190       -0.9695019242
 C          7.0527096210        1.6457053235       -1.8921606361
 C          6.3259092488        2.3007655315       -2.8743790031
 C          4.9524394465        2.1309951052       -2.9367606690
 C          4.3071491442        1.3389093120       -2.0099632121
 N          3.2173100915       -0.7830801563       -0.5335151524
 C          2.5785122417       -1.7269533966        0.1503497544
 C          1.4277585739       -2.3487368117       -0.3107064602
 C         -1.4682991633       -3.1528919899       -0.3939727773
 C         -1.6328738925       -1.7868952871       -0.2620670440
 C         -4.5881183660        1.9842324042       -0.6651815403
 C         -5.7951022773        2.5480316588       -0.3140752605
 C         -8.0859323887        3.8157061156        1.1767709529
 C         -9.3016237238        4.3747390659        1.5229303589
 H        -11.3945692987        4.0323324271        1.8222729079
 H        -11.2531765056        1.6352031300        1.2543120215
 H         -9.0951074203        0.6397745004        0.6331686729
 H         -7.0168398608        0.0596227769        1.6095417088
 H         -4.8662386605       -0.9424444826        1.0075362390
 H         -2.3254276443        2.1596218284        1.0387702923
 H         -0.2982427149        3.5380563938        0.8429817664
 H          1.3427857069        3.8324799031       -3.1012084033
 H          3.3623798927        5.2319078897       -3.2698006414
 H          4.8014432550        5.5684715578       -1.2956316515
 H          4.1994985538        4.5225634526        0.8540246091
 H          2.1831963898        3.1181616754        1.0230278294
 H          0.8276949629        1.3869707070       -2.6708929709
 H         -1.1844617592       -0.0081111859       -2.4601874243
 H         -4.7785890539       -1.5787029239       -1.5187246923
 H         -4.5089520199       -4.0230505318       -1.6563120668
 H         -3.5546732099       -6.6451918148       -1.4992709367
 H         -2.1760627140       -8.6687524239       -1.1590287413
 H          0.1123275779       -8.4959227515       -0.3076537261
 H          1.1004847772       -6.3046310452        0.2547395249
 H          0.9486969579       -4.6400118068        2.1446827974
 H          2.9915919935       -3.5447889231        3.0156593219
 H          6.5753751682       -1.3478093167        2.9500455918
 H          8.2072375639       -0.0078115338        4.2305957970
 H          8.2707519281        2.4449200415        3.9614260347
 H          6.6809460402        3.5533519748        2.4352518700
 H          5.0545146242        2.2178119960        1.1598503206
 H          6.9978977083        0.3088948790       -0.2321809610
 H          8.1271035781        1.7527086164       -1.8539396247
 H          6.8303356948        2.9267345149       -3.5955395706
 H          4.3827752389        2.6171666577       -3.7147121511
 H          3.2380302450        1.2022308536       -2.0475494455
 H          1.0186234858       -2.0421012550       -1.2602159508
 H         -0.8548848002       -1.1700207019        0.1600004432
 H         -3.9065711348        2.5193309611       -1.3102598533
 H         -6.0558558609        3.5225140854       -0.6995410436
 H         -7.1952328574        4.4270005851        1.1725368788
 H         -9.3581642093        5.4243248053        1.7722486198
