  90
       -133.11844075
 C         -5.0670447564       -0.0945993953        2.3067538136
 C         -5.2868266733       -0.3454979044        0.8103046923
 C         -6.3080230536        0.6484158975        0.2483346741
 C         -5.7069625547       -1.7761828709        0.5583482356
 C         -6.8352374419       -2.4283687628        0.9763841655
 C         -7.0136062879       -3.7704926735        0.6292816562
 C         -6.0554098429       -4.4406063186       -0.1330160877
 C         -4.9156354005       -3.8039684722       -0.5636100703
 C         -4.7247530147       -2.4511269312       -0.2240489790
 C         -3.6806234090       -1.5546039814       -0.5261319035
 C         -2.4860982458       -1.7146287945       -1.2701387608
 C         -1.6305756416       -0.6638862303       -1.3979936488
 C         -1.9186320648        0.6013230941       -0.8102702982
 N         -1.0181293630        1.6278719417       -0.9070750403
 C         -1.4558145971        2.9542553365       -0.9635006947
 C         -2.6150225364        3.2742736141       -1.6731071442
 C         -3.0219791780        4.5852931494       -1.7989965306
 C         -2.2682933608        5.6027993029       -1.2226762130
 C         -1.1243983302        5.2937795969       -0.5119122954
 C         -0.7027100206        3.9777679945       -0.3502175489
 C          0.4703302250        3.6892940127        0.4854613131
 C          0.3874783084        2.7853741102        1.5433119717
 C          1.4755015767        2.5572677323        2.3605530326
 C          2.6655104750        3.2345200367        2.1402557365
 C          2.7589114931        4.1351144872        1.0914272537
 C          1.6707405360        4.3670526812        0.2735599303
 C          0.3365208333        1.3675266309       -1.1174745410
 C          1.0055581905        2.0948220567       -2.1105446862
 C          2.3116393567        1.8312555467       -2.4501799413
 C          3.0052848131        0.7907970177       -1.8193870594
 C          2.3678413612        0.0810838043       -0.8362142328
 C          1.0454666016        0.3561120043       -0.4252572787
 C          0.7418800173       -0.4698697124        0.7187329550
 C         -0.3600255472       -0.5548063111        1.5720828345
 C         -0.3327189135       -1.4486300227        2.6250654646
 C          0.7690853262       -2.2605528289        2.8608037662
 C          1.8797282856       -2.1833333881        2.0277631701
 C          1.8573569620       -1.2957574877        0.9798856665
 C          2.9435915343       -1.0564342563       -0.0342859383
 C          4.3028838382       -0.7781281626        0.5501419006
 C          4.6701253074        0.2418606661        1.3991855518
 C          5.9926304689        0.3095284227        1.8162279141
 C          6.9215380370       -0.6275917396        1.3885696833
 C          6.5554163150       -1.6530194626        0.5311384516
 C          5.2380261290       -1.7257168545        0.1093419267
 C          4.5623013265       -2.6604701516       -0.7766691400
 C          5.0279899589       -3.7679266237       -1.4660908103
 C          4.1370523021       -4.4861633437       -2.2476240324
 C          2.8054649787       -4.1095913396       -2.3387298964
 C          2.3316225103       -3.0007761493       -1.6502922852
 C          3.2158171562       -2.2824944180       -0.8764096808
 C         -3.1369771377        0.7748127135       -0.0860328042
 C         -3.9778401641       -0.2770450774        0.0570207905
 H         -5.9968659713       -0.2326468087        2.8527067996
 H         -4.3288046352       -0.7919515529        2.6965693849
 H         -4.7119745518        0.9199863550        2.4733510873
 H         -7.2602062270        0.5420219109        0.7620203830
 H         -5.9546312369        1.6690632395        0.3774828916
 H         -6.4643675478        0.4650826182       -0.8125046635
 H         -7.5852205861       -1.9237561955        1.5686750824
 H         -7.8991928618       -4.2943371214        0.9551182783
 H         -6.2185007671       -5.4785360193       -0.3860405905
 H         -4.1763751057       -4.3244980417       -1.1534849184
 H         -2.2720710502       -2.6611070546       -1.7424058607
 H         -0.7316429916       -0.7568260870       -1.9881359658
 H         -3.1700142527        2.4803656135       -2.1509659529
 H         -3.9130375529        4.8202770245       -2.3605752641
 H         -2.5785942414        6.6310198403       -1.3274514238
 H         -0.5514221117        6.0802247170       -0.0429771585
 H         -0.5437334030        2.2756322007        1.7372990344
 H          1.3944939235        1.8509962665        3.1742567863
 H          3.5127923018        3.0715748928        2.7900928649
 H          3.6856823302        4.6608528952        0.9134782203
 H          1.7482340010        5.0643593505       -0.5479529178
 H          0.4593661925        2.8645734410       -2.6368217027
 H          2.7944447404        2.4098998502       -3.2222023682
 H          4.0219636465        0.5580310600       -2.0969349285
 H         -1.2363355754        0.0535666241        1.4273678318
 H         -1.1888811375       -1.5156580331        3.2817550463
 H          0.7641536824       -2.9493798174        3.6920209291
 H          2.7466242054       -2.8041706289        2.2025014320
 H          3.9425814416        0.9700735219        1.7226945127
 H          6.3037699287        1.1017965048        2.4815194850
 H          7.9448492986       -0.5553793974        1.7272963311
 H          7.2835667764       -2.3781951612        0.1990860958
 H          6.0631093758       -4.0676340734       -1.3958814962
 H          4.4828564033       -5.3529056026       -2.7918131762
 H          2.1288459144       -4.6872713609       -2.9513203746
 H          1.2930215858       -2.7108566698       -1.7149115545
 H         -3.3399891783        1.7309947639        0.3744402543
