90
 energy: -133.165330174629 gnorm: 0.000028686719 xtb: 6.7.1 (edcfbbe)
C           -5.21358057997316       -0.05513875147432        2.28832902551146
C           -5.35403303486625       -0.31195456330227        0.78276933495231
C           -6.31819542215889        0.70472257076081        0.15918708688879
C           -5.79885023085006       -1.73295250152243        0.51316003516624
C           -6.95970348747895       -2.35775673781368        0.88333209022428
C           -7.15759772656264       -3.69527720448402        0.52787727301486
C           -6.18555076109817       -4.38987585594175       -0.19436073227777
C           -5.01385684863904       -3.78101532777110       -0.57830631630975
C           -4.80346907460008       -2.43287486507537       -0.23025148152116
C           -3.72591690499510       -1.56169155772561       -0.49093141370448
C           -2.51449505053097       -1.74744476771875       -1.20069761600812
C           -1.63498071338195       -0.71371844009236       -1.30991833278261
C           -1.91002608389333        0.55737181778649       -0.72961506732226
N           -1.00710618315552        1.58256653409493       -0.84447436310125
C           -1.45637840499122        2.90804384884945       -0.92080573801444
C           -2.61713388540932        3.20473708949622       -1.63963628284732
C           -3.05016732478437        4.50730453452766       -1.77012607726917
C           -2.32087910121280        5.54003655596358       -1.19227495053242
C           -1.16988820557373        5.25523988907214       -0.48160288588879
C           -0.72127860823254        3.94796433975616       -0.31780521086623
C            0.46566229878515        3.69438782487676        0.51381162831620
C            0.40908875063319        2.81158653769768        1.59021561296135
C            1.50675414363267        2.62723090869069        2.40723957945347
C            2.68000996689331        3.32492118099588        2.16470882655612
C            2.74748266356488        4.20493152325724        1.09651784845095
C            1.64868762061255        4.39497800239944        0.28098200906543
C            0.34409978085442        1.32708822479758       -1.08060360036062
C            0.98671856298966        2.04794872858345       -2.09670444051091
C            2.28178193764449        1.78169876658635       -2.47356835739512
C            2.99661833865571        0.74777996987162       -1.85274676851895
C            2.39039652473313        0.04661869737588       -0.84430396935266
C            1.07703874765578        0.32108114584681       -0.40011754531627
C            0.80466133099661       -0.49903486034888        0.75253954288257
C           -0.27714006627679       -0.57940322585594        1.63369470729782
C           -0.22720543932293       -1.47011835001108        2.68814227346799
C            0.87821871522224       -2.28495185265624        2.89859691370176
C            1.96995538415959       -2.21136483610784        2.03891546920172
C            1.92616200382891       -1.32679103702197        0.98936180978870
C            2.99314218985160       -1.08163946375778       -0.04552905336641
C            4.35462566217552       -0.77787383254107        0.52606326970259
C            4.71387326686341        0.24497040004160        1.37618283751258
C            6.03905496323200        0.33347182836072        1.78211677617369
C            6.97971189387262       -0.58729670250492        1.34384221099049
C            6.62234818958799       -1.61647727512909        0.48711474618847
C            5.30214459947001       -1.70975959158952        0.07646089709838
C            4.63471533649214       -2.65783395812154       -0.80183796761383
C            5.11450954681047       -3.75867318527626       -1.49349177118372
C            4.22969395615160       -4.49695189701066       -2.26349628001348
C            2.88983091359284       -4.14656051414459       -2.34097571046485
C            2.40244476659130       -3.04436928968663       -1.65072968076607
C            3.27954471903499       -2.30593653765613       -0.88691957609347
C           -3.13588115064537        0.74984099362459       -0.02333478579798
C           -4.00900919494767       -0.28036156981368        0.09037113317450
H           -6.18249109999517       -0.13596991311492        2.77545564734597
H           -4.54136030646755       -0.78625208182180        2.73303157102810
H           -4.81535048624009        0.94106329368238        2.46763382785117
H           -7.30330911377616        0.61532469846960        0.61085311358272
H           -5.95312996932809        1.71723675178971        0.31583407808724
H           -6.41035526567047        0.52791644483828       -0.91073791298196
H           -7.72095815102367       -1.83554987001089        1.44561951003202
H           -8.06908222881388       -4.19712480024563        0.81696371371804
H           -6.36339250096723       -5.42433582582554       -0.45463910915444
H           -4.26436504166425       -4.32087054137519       -1.13805384642891
H           -2.30901551710974       -2.69751676370190       -1.67020838746482
H           -0.72704958159097       -0.82577224197651       -1.88336853479425
H           -3.15480071857234        2.39924818303824       -2.11833798308379
H           -3.94423242815608        4.72179409357735       -2.33543829098288
H           -2.65192676296423        6.56207992528362       -1.29700343930698
H           -0.61179529901404        6.05400590736144       -0.01535976333504
H           -0.50871595108249        2.28345516852578        1.80068034051519
H            1.44531821679583        1.93911418505019        3.23828377718147
H            3.53529921988911        3.19073951339379        2.81102521713414
H            3.66105304439346        4.74821848328284        0.90179840764739
H            1.70578165422726        5.07839640226485       -0.55392938636517
H            0.42543145779985        2.81190134919123       -2.61597240942451
H            2.74055904906061        2.35223677621075       -3.26615781832756
H            4.00537375888768        0.51492627305185       -2.15935067531396
H           -1.15369260114455        0.03332633900887        1.50403498769923
H           -1.06596017189100       -1.53251756178562        3.36742035701049
H            0.89223156649569       -2.97315324938408        3.73079108032217
H            2.83913370162812       -2.83469083744322        2.19658261625425
H            3.97779773462369        0.96018926843635        1.71214904023044
H            6.34255867835426        1.12870703561432        2.44764695920122
H            8.00501594092822       -0.49934908504253        1.67401328326906
H            7.35876825698742       -2.33001402547123        0.14755617887259
H            6.15616018722318       -4.03810858160294       -1.43326522136817
H            4.58665291099448       -5.35884660202340       -2.80897131965066
H            2.21708894882727       -4.73861426227304       -2.94457232599929
H            1.35754288194383       -2.77539749198521       -1.70589902485456
H           -3.32894776195144        1.70810162048507        0.43698423024976
