90
 energy: -133.258656961997 gnorm: 0.000049324248 xtb: 6.7.1 (edcfbbe)
C           -5.07694294044552       -0.00244519155966        2.14728842630610
C           -5.19905178275557       -0.36818442852508        0.66423391597721
C           -6.13684106181103        0.60958253232147       -0.05259060972428
C           -5.66005600631041       -1.79905620603513        0.48966845741615
C           -6.83913283936296       -2.38334593697646        0.89878649323285
C           -7.05197711759523       -3.72898589837750        0.62610272763480
C           -6.09600818898192       -4.47586780953329       -0.04498073095985
C           -4.90693042657014       -3.89703793604021       -0.45912285958633
C           -4.69202280741558       -2.55463086762508       -0.19044095593908
C           -3.56701541516207       -1.69019128331082       -0.50011182604547
C           -2.37490214057637       -1.93662614071979       -1.16177413903241
C           -1.47245939176489       -0.90368534001767       -1.33274111138943
C           -1.73774653944114        0.37485880698497       -0.83710459910695
N           -0.81666706792750        1.41142084814381       -0.98849858676186
C           -1.27954859801476        2.71760459777167       -1.23707252915271
C           -2.40013995971493        2.92802747501039       -2.03924227114989
C           -2.83669118851668        4.20751836697967       -2.32244843841486
C           -2.14556016522046        5.30111846228111       -1.82601524485483
C           -1.02858997209280        5.10143452692305       -1.03533687779651
C           -0.58753173726767        3.82131769831203       -0.71752948867920
C            0.57519937332743        3.66509871316644        0.17690100739689
C            0.47152578342209        2.92073796019602        1.34763592503871
C            1.54201337454787        2.82657690148689        2.21687982034490
C            2.73079893586476        3.47565992711350        1.92737537002862
C            2.84640665061520        4.21299222152118        0.76046054505603
C            1.77418877922835        4.31184209804662       -0.10685403768691
C            0.53386576090883        1.13576638939963       -1.25687376409628
C            1.13835142071769        1.74871380226438       -2.35796445567041
C            2.44755800135048        1.48968280365527       -2.71156820775725
C            3.20314668104866        0.57935160700107       -1.98687536062939
C            2.62135567693104       -0.02112887839589       -0.89269217241984
C            1.30582147910392        0.25750618971493       -0.48799467056246
C            1.04607611445427       -0.48266556752271        0.74315283913919
C           -0.04133031682500       -0.52033591383977        1.60381587533553
C            0.02080975677579       -1.31640222273748        2.73664656549221
C            1.14923913018925       -2.06642313991970        3.02645921759729
C            2.25016257419110       -2.02700739058991        2.18234729999628
C            2.19006442108000       -1.23482379322647        1.05718261493494
C            3.26087398415042       -1.03968626377846        0.01702692903730
C            4.60259528579567       -0.62021146555628        0.56244898207477
C            4.90522346537254        0.48730332266242        1.32373698099672
C            6.22393791034723        0.68104638058609        1.71392343993238
C            7.21380650189056       -0.21827633423933        1.34569294401351
C            6.91298114397972       -1.33278981185221        0.57850413319237
C            5.59934305715660       -1.53267190348979        0.18587590710343
C            4.98357268865622       -2.58731336131569       -0.60511974189479
C            5.52208114256942       -3.71359755012828       -1.20625170664928
C            4.67741953442537       -4.56139063689800       -1.90561153299725
C            3.31994240402728       -4.29333885922922       -2.00239842940993
C            2.77385513842112       -3.16558972667962       -1.40346406651918
C            3.61126692184845       -2.31872582181360       -0.71090929129235
C           -2.94230519270569        0.61834928593453       -0.16278080714278
C           -3.84407278960646       -0.40540126482339       -0.00681123181983
H           -4.41599322356695       -0.70321855211427        2.65362325496298
H           -4.67242892008982        1.00119539691730        2.25681806676993
H           -6.05265119493326       -0.03843775592065        2.62609629384544
H           -6.22291302605054        0.34452802774117       -1.10474276885631
H           -7.12740840226234        0.57934309274091        0.39499323028302
H           -5.75138412591767        1.62406243549721        0.02064222639586
H           -7.59193295906194       -1.81171315498684        1.42248669466852
H           -7.97326803676660       -4.19872689688700        0.93999804662669
H           -6.28122508706304       -5.52147984745694       -0.24716799118177
H           -4.16362014883656       -4.48193519421982       -0.98115924077667
H           -2.15243474225352       -2.91811119409763       -1.55405295196686
H           -0.54997876177510       -1.07930330300535       -1.86618049881401
H           -2.92089589812893        2.07426498987819       -2.44862813587187
H           -3.70779060228982        4.34981157006822       -2.94495221908348
H           -2.47620239187434        6.30364126152590       -2.05260451388699
H           -0.49321762823847        5.94879589865198       -0.63145447711215
H           -0.46000165535561        2.43028107817021        1.58662259827814
H            1.44678864404090        2.24762991765744        3.12447861776671
H            3.56253354154261        3.41549506597350        2.61460001267401
H            3.77407208378824        4.71633643328302        0.52857189023471
H            1.86485858154027        4.88664476080903       -1.01752775293965
H            0.55176534728549        2.43337620134957       -2.95392495043170
H            2.87438891279300        1.98358876599047       -3.57188033346534
H            4.21934289521332        0.34719848996535       -2.26837289925029
H           -0.93169881000520        0.05265074576513        1.40846610588715
H           -0.82664862966625       -1.34922405582651        3.40634547536844
H            1.17491386238841       -2.68033079235084        3.91503798323505
H            3.13899372077904       -2.60059754450255        2.40353040354496
H            4.13125599479870        1.18607418077737        1.60425219862421
H            6.48357135358559        1.54291620314231        2.31146673947392
H            8.23323243275012       -0.04670150181653        1.66064450771441
H            7.68763038581656       -2.02942220088542        0.29355043323834
H            6.57793091846925       -3.92827690785897       -1.13204846681018
H            5.08066620759651       -5.44410879164800       -2.38088365212640
H            2.67961607972889       -4.96957683196851       -2.55011525338507
H            1.71587355679939       -2.95825830208465       -1.47536101463108
H           -3.14569772110492        1.60591233897183        0.22586266887119
