90
 energy: -133.165329062010 gnorm: 0.000028725428 xtb: 6.7.1 (edcfbbe)
C           -5.22541385919237        0.00888362946213        2.29588052428107
C           -5.36780435998773       -0.26145416629258        0.79286552708808
C           -6.31868838980561        0.76077326604123        0.15801845656205
C           -5.82989705478284       -1.67939251993017        0.53666958624830
C           -6.99928702401951       -2.28571250213520        0.91060490649782
C           -7.21371855297201       -3.62394294656168        0.56755834464288
C           -6.24951306901783       -4.33768283191192       -0.14653056829645
C           -5.06928981766818       -3.74772123505193       -0.53377694468035
C           -4.84217564490262       -2.39904959524833       -0.19823120814058
C           -3.75346279251462       -1.54402044109642       -0.46580211698929
C           -2.54296657213629       -1.75172576142383       -1.17132960992812
C           -1.65202177219129       -0.72909366145453       -1.29209620883378
C           -1.91405606130243        0.55202653063657       -0.72809924194902
N           -1.00380974163311        1.56845191839822       -0.85989574933473
C           -1.44432225992647        2.89606958028939       -0.95244990130839
C           -2.60313577491879        3.19191046589792       -1.67459103178147
C           -3.02612821100448        4.49591683568602       -1.82240199102470
C           -2.28864486437740        5.53059951600839       -1.25847208443095
C           -1.13987135775366        5.24649042653693       -0.54398704233325
C           -0.70131548639736        3.93804656755577       -0.36284873645108
C            0.48213712156675        3.68531278915124        0.47374086476531
C            0.41661261134775        2.81407606554728        1.55911171022353
C            1.51040618335738        2.63128900019033        2.38159155625126
C            2.68880976742151        3.31906423460708        2.13568327786813
C            2.76542233578598        4.18709317294363        1.05829565869877
C            1.67052789799403        4.37549425617110        0.23714585794560
C            0.34461033861991        1.30213465949284       -1.10026532126272
C            0.98418024028874        2.00673966679957       -2.12967526488487
C            2.27620683648575        1.73107263939432       -2.51014493665114
C            2.99142457757364        0.70446944629717       -1.87801286196752
C            2.38847730682626        0.01988140013489       -0.85628657503979
C            1.07771904464541        0.30309759096507       -0.40994984906219
C            0.80968878950015       -0.49980248654111        0.75588411512905
C           -0.27011407758714       -0.56904704382663        1.64039683206471
C           -0.21596053808368       -1.44309308232799        2.70852069371767
C            0.89216392895827       -2.25141102445485        2.92976237705850
C            1.98134990973326       -2.18977027993888        2.06591636956391
C            1.93296934176098       -1.32254673566100        1.00214343494822
C            2.99455894002759       -1.09560918825181       -0.04220781876672
C            4.36092419024457       -0.78143094178048        0.51178688362152
C            4.72730055655930        0.25708049828710        1.33955045252562
C            6.05708724913001        0.35666800126135        1.72741645354454
C            6.99535660663917       -0.56831070441004        1.29296917804862
C            6.63072894757401       -1.61356554554283        0.45906448283492
C            5.30568329244162       -1.71848692628116        0.06713341529603
C            4.63049691508580       -2.68332128011887       -0.78676615406761
C            5.10433786568807       -3.79648246773225       -1.46265340782914
C            4.21255820461492       -4.54932300683620       -2.21022730791838
C            2.87180333873991       -4.20104792208451       -2.28141705693582
C            2.39020241670569       -3.08694831370563       -1.60639765386922
C            3.27413513448703       -2.33436814086807       -0.86457475714424
C           -3.13715446612001        0.76552592901742       -0.02305099885188
C           -4.02189778499351       -0.25335659109029        0.10162516246722
H           -4.56065336788563       -0.72436779083999        2.74828714923725
H           -4.81722745039480        1.00278497059728        2.46529933834151
H           -6.19527578077076       -0.05720521604891        2.78334196639551
H           -7.30524390875667        0.68825354483155        0.60953854606725
H           -5.94124062229006        1.77022842195758        0.30474115600110
H           -6.41208132202642        0.57425219800829       -0.91015321854407
H           -7.75484698952889       -1.74846696588657        1.46636005464377
H           -8.13215782377127       -4.11118954955683        0.85960298548552
H           -6.44030896071167       -5.37213269660168       -0.39751396114155
H           -4.32581822259334       -4.30243789726989       -1.08698499779293
H           -2.34708380988526       -2.70969133509864       -1.62876179865731
H           -0.74457061852367       -0.85820407649129       -1.86270427337592
H           -3.14701835364049        2.38421725772712       -2.14246311959338
H           -3.91878611997928        4.70970179396755       -2.39019825771836
H           -2.61193116728751        6.55366654004160       -1.37664245830333
H           -0.57587306176546        6.04706830418298       -0.08809193112637
H           -0.50535532404046        2.29435026172084        1.77230311430654
H            1.44203271319185        1.95235474101952        3.21960601051260
H            3.54078739910738        3.18669627661834        2.78675056729696
H            3.68316047143049        4.72230482584346        0.86077733366312
H            1.73481533255647        5.04936470334830       -0.60497170040533
H            0.42260864247681        2.76544924288583       -2.65626303999579
H            2.73225223934330        2.28880492672887       -3.31335109867498
H            3.99811043745010        0.46456763898020       -2.18595264688289
H           -1.14886050339363        0.03874935006368        1.50237355679533
H           -1.05350826473478       -1.49720812730864        3.39002104922063
H            0.90996326365963       -2.92567673793537        3.77324752358454
H            2.85200317722021       -2.80905682991648        2.23119883527377
H            3.99318708850297        0.97614831941848        1.67156714403749
H            6.36617250622739        1.16416215341812        2.37536627156813
H            8.02454123556524       -0.47094641288102        1.60806660015069
H            7.36552757477978       -2.33007257292845        0.12226413698483
H            6.14665163214211       -4.07444149119885       -1.40740337045898
H            4.56484868003678       -5.42108163504972       -2.74291753915990
H            2.19379879321964       -4.80430084792312       -2.86777962384482
H            1.34456109604922       -2.81965501029992       -1.65609093675797
H           -3.31956957718815        1.73091177819888        0.42657015128142
