  54
  -92.5198637305000       0.361107252027466      !
 C         -5.7220603543       -2.6965579925       -2.0485704312
 C         -5.0069640837       -1.8563841804       -2.8882951883
 C         -3.9875109867       -1.0877905877       -2.3573419010
 C         -3.7361657223       -1.1815975410       -0.9904543418
 C         -2.6490755126       -0.3882604182       -0.3779385456
 N         -1.4058938377       -0.7182161665       -0.6563828181
 C         -0.3767794279       -0.0792370632       -0.0934665061
 C          0.9491021107       -0.3727685346       -0.3692889672
 C          1.9623259649        0.3406842895        0.2877346861
 N          3.3264421875        0.0636313788        0.0497757044
 C          3.9343310247       -1.0323165196        0.6545199815
 C          3.2156899049       -1.9464031133        1.4168168772
 C          3.8514765274       -3.0287042441        2.0020295359
 C          5.2118633733       -3.2123640186        1.8395199597
 C          5.9439856083       -2.3052380846        1.0890305143
 C          5.3159551648       -1.2222579195        0.5004120354
 O          6.0977541054       -0.3596679951       -0.2227519393
 C          5.4876480270        0.7293308096       -0.7877784396
 C          6.2853119713        1.6035998468       -1.5040926557
 C          5.7271555104        2.7169340782       -2.1131815975
 C          4.3684525052        2.9486398104       -2.0068533730
 C          3.5638002261        2.0791142102       -1.2897904600
 C          4.1097254523        0.9635179410       -0.6645698049
 C          1.5966855226        1.3243553485        1.1938740654
 N          0.3377651993        1.6263896316        1.4516865049
 C         -0.6613715499        0.9877481475        0.8628689291
 N         -1.9140658135        1.3045644232        1.1096734233
 C         -2.9280023840        0.6669416912        0.5103110544
 C         -4.2828576196        1.0958744287        0.7930735003
 C         -4.5442931053        1.8990118180        1.9120897587
 C         -5.8460585919        2.2780708169        2.1620850854
 C         -6.8505510716        1.8599962222        1.2967323329
 C         -6.4870061460        1.0873886187        0.2032972955
 N         -5.2479643299        0.7202803086       -0.0455466764
 N         -4.4010597212       -2.0037118333       -0.1915407271
 C         -5.3674337903       -2.7370238138       -0.7090348284
 H         -6.5289573641       -3.3069207195       -2.4235381647
 H         -5.2405714375       -1.8024585977       -3.9421614258
 H         -3.4024058788       -0.4225228794       -2.9721669727
 H          1.1901138120       -1.1418277390       -1.0847236193
 H          2.1553762968       -1.8046829595        1.5532182240
 H          3.2740839753       -3.7261083022        2.5881829487
 H          5.7092920438       -4.0536622691        2.2953798989
 H          7.0075358860       -2.4175443760        0.9507170953
 H          7.3407850977        1.3939014669       -1.5735863545
 H          6.3561858818        3.3935972945       -2.6695237053
 H          3.9238477298        3.8083888013       -2.4831694598
 H          2.5033982251        2.2617077788       -1.2123579758
 H          2.3412372282        1.8955900639        1.7301223303
 H         -3.7234031100        2.1944378655        2.5453219188
 H         -6.0828850605        2.8908495067        3.0202940327
 H         -7.8814381950        2.1308986216        1.4619143128
 H         -7.2235440622        0.7471631401       -0.5139377761
 H         -5.8783973097       -3.3889868106       -0.0121554329
  54
  -92.5190267187000       0.148926581398235      !
 C         -5.6871553016       -2.0411407214       -2.7570395450
 C         -4.6696062877       -1.3809363349       -3.4290642883
 C         -3.6581659780       -0.7873645304       -2.6965479084
 C         -3.7127144907       -0.8677968894       -1.3053294103
 C         -2.6515526762       -0.2695248753       -0.4876751746
 N         -1.3948284027       -0.4728926219       -0.8473926090
 C         -0.3807288354       -0.0604056489       -0.0900933691
 C          0.9523582871       -0.2663620070       -0.4128253864
 C          1.9522039673        0.1425394874        0.4832680854
 N          3.3157194615       -0.0337588767        0.1808330298
 C          4.1185189161       -0.8479351920        0.9769962984
 C          3.5985181441       -1.6135825218        2.0154007427
 C          4.4239853468       -2.4185661080        2.7821285740
 C          5.7800959618       -2.4802184851        2.5214636334
 C          6.3111631840       -1.7428704409        1.4751609281
 C          5.4916986817       -0.9379251172        0.7037947681
 O          6.0793203981       -0.2585743473       -0.3301266802
 C          5.2786394223        0.5427674113       -1.0999309643
 C          5.8864518478        1.2326001583       -2.1339104870
 C          5.1417877780        2.0764327519       -2.9427314063
 C          3.7900594040        2.2354996059       -2.7030392149
 C          3.1751290788        1.5482476705       -1.6697804901
 C          3.9026747808        0.6802425832       -0.8624324777
 C          1.5649791926        0.7318815711        1.6779731315
 N          0.2982782856        0.9324624608        1.9974124185
 C         -0.6835310421        0.5926199367        1.1824616196
 N         -1.9426728192        0.8480649707        1.4766776388
 C         -2.9383852175        0.4795980004        0.6688061375
 C         -4.2868225993        0.9224493640        0.9905584165
 C         -4.6315392122        1.1860654211        2.3208691523
 C         -5.9167465865        1.6062726904        2.5976659582
 C         -6.8162407442        1.7602006245        1.5508322212
 C         -6.3678130817        1.4994438334        0.2638116765
 N         -5.1443946860        1.1000450385       -0.0119766332
 N         -4.6753856207       -1.5214227955       -0.6637987177
 C         -5.6316530424       -2.0866177969       -1.3709903165
 H         -6.4966044128       -2.5138534913       -3.2914256682
 H         -4.6647851566       -1.3316868590       -4.5088056845
 H         -2.8426133973       -0.2661380594       -3.1717381734
 H          1.2077714353       -0.7706163189       -1.3305803689
 H          2.5400646296       -1.5808641282        2.2198518113
 H          3.9964139535       -2.9994699420        3.5843632257
 H          6.4260125050       -3.1028048557        3.1199150321
 H          7.3620536465       -1.7793451909        1.2367671388
 H          6.9454901175        1.0978265264       -2.2844581420
 H          5.6228767528        2.6096767469       -3.7472082987
 H          3.2022813975        2.8999597671       -3.3170628067
 H          2.1226910116        1.6910217368       -1.4839075485
 H          2.2946935511        1.0638253596        2.4026880736
 H         -3.8901106390        1.0527290655        3.0921438504
 H         -6.2180947780        1.8128182544        3.6147470014
 H         -7.8309105019        2.0819694762        1.7260041741
 H         -7.0189058511        1.6242251639       -0.5924835097
 H         -6.3881831048       -2.6061657192       -0.7966482665
  54
  -92.5189764892000       0.141217442010818      !
 C         -5.7399976572       -2.4984540831       -2.2891628764
 C         -4.7205831957       -1.9937238961       -3.0820131631
 C         -3.6944528112       -1.2858602078       -2.4837701774
 C         -3.7362239566       -1.0974826025       -1.1026230517
 C         -2.6617581283       -0.3680392411       -0.4217916937
 N         -1.4102146306       -0.6342714724       -0.7608054545
 C         -0.3859396354       -0.1018587638       -0.0988347662
 C          0.9443892159       -0.3288163781       -0.4258316281
 C          1.9520157149        0.2039603797        0.3894947845
 N          3.3188273410       -0.0066152992        0.0952311976
 C          4.0371516037       -0.9850476805        0.7718489390
 C          3.4215932681       -1.8783964854        1.6411623522
 C          4.1620178058       -2.8551865842        2.2856950987
 C          5.5241667954       -2.9543465407        2.0719328371
 C          6.1518700334       -2.0731705152        1.2047602804
 C          5.4190392157       -1.0958757265        0.5556821042
 O          6.0948874879       -0.2616958583       -0.2960546556
 C          5.3765046578        0.7186159016       -0.9291927590
 C          6.0683585104        1.5744347347       -1.7673092126
 C          5.3984664115        2.5872971584       -2.4363256575
 C          4.0358789046        2.7418690441       -2.2622708224
 C          3.3363498789        1.8904111916       -1.4236181099
 C          3.9932751447        0.8679474863       -0.7485049304
 C          1.5855527693        0.9389639458        1.5058409198
 N          0.3232419926        1.1882042068        1.8099374265
 C         -0.6689290903        0.7361540376        1.0647241473
 N         -1.9234388079        1.0457157925        1.3300823843
 C         -2.9295935129        0.5617946053        0.6003923186
 C         -4.2721670461        1.0626238123        0.8573883487
 C         -4.6088975485        1.5342043050        2.1306280997
 C         -5.8868253069        2.0126846519        2.3390156210
 C         -6.7861535975        2.0170960678        1.2810656374
 C         -6.3454745717        1.5525544147        0.0499482085
 N         -5.1294678356        1.0952629495       -0.1604641888
 N         -4.7013583215       -1.6030267738       -0.3413746658
 C         -5.6715649731       -2.2786553836       -0.9203618785
 H         -6.5607654924       -3.0525265667       -2.7174221718
 H         -4.7253196025       -2.1521207729       -4.1510656354
 H         -2.8763479153       -0.8778069929       -3.0551875075
 H          1.1904954713       -0.9313279718       -1.2846016717
 H          2.3581478957       -1.8046987869        1.8077493755
 H          3.6646235558       -3.5386537233        2.9560141757
 H          6.1031860942       -3.7135143722        2.5734595079
 H          7.2120757127       -2.1276234436        1.0171127970
 H          7.1310222514        1.4326911418       -1.8803351285
 H          5.9456676265        3.2506692600       -3.0870759306
 H          3.5073205880        3.5291782383       -2.7766232909
 H          2.2742021220        2.0167061432       -1.2847705541
 H          2.3267839933        1.3514242528        2.1751918759
 H         -3.8673368069        1.5117132434        2.9127319123
 H         -6.1825275056        2.3793513114        3.3117434044
 H         -7.7949854713        2.3789085325        1.4042876309
 H         -6.9966807691        1.5530424402       -0.8152592314
 H         -6.4292575723       -2.6677128306       -0.2519849114
  54
  -92.5189566302000       0.138280765797175      !
 C         -5.6857538279       -2.9481513650       -1.7367845040
 C         -4.7024646382       -2.5413006124       -2.6256183829
 C         -3.6941217222       -1.7101838017       -2.1738979065
 C         -3.7176255990       -1.3038952718       -0.8401513229
 C         -2.6548765893       -0.4345978553       -0.3189097008
 N         -1.4011586926       -0.7614823687       -0.5879551188
 C         -0.3812237995       -0.0802742567       -0.0722371047
 C          0.9491366913       -0.3515876701       -0.3594049753
 C          1.9572948970        0.3806605165        0.2839457061
 N          3.3201117611        0.1090710592        0.0448712492
 C          3.8945944071       -1.0676518118        0.5198368270
 C          3.1529031626       -2.0394329628        1.1827569012
 C          3.7560774821       -3.2011438295        1.6352910490
 C          5.1085756171       -3.4089550057        1.4410060813
 C          5.8656608050       -2.4431599140        0.7965098803
 C          5.2698901064       -1.2804687534        0.3412306459
 O          6.0796897997       -0.3632873185       -0.2751778085
 C          5.5037770998        0.8000077201       -0.7130303254
 C          6.3317357789        1.7236330854       -1.3256869942
 C          5.8112649494        2.9131731721       -1.8108633472
 C          4.4583022569        3.1688067400       -1.6890540457
 C          3.6237963138        2.2495335609       -1.0757082449
 C          4.1325078403        1.0590896265       -0.5674097857
 C          1.5846604309        1.3648520122        1.1867545479
 N          0.3205956020        1.6627443901        1.4348500768
 C         -0.6710630472        1.0122595722        0.8547602941
 N         -1.9296539252        1.3405060957        1.0726758242
 C         -2.9340416087        0.6789962847        0.4932707426
 C         -4.2904663055        1.1642229262        0.7037257877
 C         -4.6070782244        1.8615451276        1.8745439339
 C         -5.9009583261        2.3117705673        2.0437660427
 C         -6.8355305702        2.0669559241        1.0463445052
 C         -6.4134330573        1.3917337174       -0.0903202215
 N         -5.1830090742        0.9570706828       -0.2619247987
 N         -4.6461619871       -1.7142506927        0.0160344974
 C         -5.5998124295       -2.5094107804       -0.4231034692
 H         -6.4920072637       -3.5927812207       -2.0506352695
 H         -4.7220487611       -2.8680492719       -3.6558017110
 H         -2.9041106429       -1.3697633347       -2.8241263839
 H          1.1957025597       -1.1222168602       -1.0714166707
 H          2.0989211791       -1.8827121646        1.3479953825
 H          3.1586310309       -3.9413044832        2.1443693698
 H          5.5805851997       -4.3124213394        1.7929765558
 H          6.9248697737       -2.5696793155        0.6400522950
 H          7.3805514641        1.4901352331       -1.4144263377
 H          6.4638504016        3.6286325702       -2.2854158620
 H          4.0406895271        4.0868195934       -2.0720842343
 H          2.5679688841        2.4531282076       -0.9905388955
 H          2.3227065123        1.9415544330        1.7257026191
 H         -3.8383900743        2.0282272083        2.6118713694
 H         -6.1821031162        2.8469214626        2.9399068576
 H         -7.8577903185        2.3983756022        1.1425497519
 H         -7.0932878227        1.1945079795       -0.9097905462
 H         -6.3295109442       -2.8115562490        0.3174617699
  54
  -92.5187828403000       0.115051813306351      !
 C         -5.6346424439       -3.0291963961       -1.6656632676
 C         -4.8506212392       -2.4096220500       -2.6265229583
 C         -3.8645310872       -1.5287723354       -2.2205280184
 C         -3.7117607854       -1.2925059379       -0.8561635411
 C         -2.6510449560       -0.3888377321       -0.3732794512
 N         -1.4021536324       -0.6990384556       -0.6637791493
 C         -0.3809387039        0.0059092058       -0.1763948474
 C          0.9472443885       -0.2782256312       -0.4517033039
 C          1.9581057511        0.4732948131        0.1675789703
 N          3.3169212478        0.1507225608       -0.0151416764
 C          3.8199341948       -1.0483719534        0.4898609443
 C          3.0099515753       -1.9915250642        1.1136704290
 C          3.5419378974       -3.1800165350        1.5852573652
 C          4.8915356724       -3.4449841207        1.4509144295
 C          5.7179920485       -2.5046619621        0.8563481533
 C          5.1936364601       -1.3138282010        0.3856663732
 O          6.0736535580       -0.4209314433       -0.1664897096
 C          5.5688143875        0.7655965364       -0.6281092504
 C          6.4684560377        1.6650635804       -1.1719109375
 C          6.0228464155        2.8718663125       -1.6875187380
 C          4.6724373628        3.1666940709       -1.6696075633
 C          3.7671848894        2.2738439537       -1.1209822317
 C          4.2002673380        1.0702419174       -0.5746862760
 C          1.5837444866        1.5105505036        1.0088705961
 N          0.3210953443        1.8233548521        1.2393065163
 C         -0.6728554524        1.1311003743        0.7095456118
 N         -1.9298544242        1.4372359563        0.9528812317
 C         -2.9374641633        0.7271752972        0.4326278843
 C         -4.2976415413        1.1448428549        0.7205551922
 C         -4.5553775546        1.9465107942        1.8402167145
 C         -5.8578867267        2.3186069150        2.0993107160
 C         -6.8642235653        1.8943499318        1.2401614959
 C         -6.5026413074        1.1250404281        0.1434500283
 N         -5.2632025206        0.7644980321       -0.1143146987
 N         -4.4480210365       -1.9008327516        0.0644301307
 C         -5.3825906268       -2.7411270501       -0.3324338044
 H         -6.4149576895       -3.7214214050       -1.9416719513
 H         -5.0033075337       -2.6136412230       -3.6768966954
 H         -3.2260374482       -1.0276378200       -2.9305699776
 H          1.1924197622       -1.0771412477       -1.1324986169
 H          1.9572369079       -1.7937625475        1.2358510908
 H          2.8897422380       -3.8961420557        2.0603800915
 H          5.3072567707       -4.3719840815        1.8125114949
 H          6.7779300367       -2.6722281108        0.7521078143
 H          7.5131326095        1.3986736776       -1.1837694297
 H          6.7310017636        3.5691615889       -2.1061429433
 H          4.3126461924        4.0957073138       -2.0835797061
 H          2.7142483387        2.5080486397       -1.1172614503
 H          2.3213808744        2.1140853579        1.5186737112
 H         -3.7323115137        2.2476216472        2.4680803502
 H         -6.0922440055        2.9301337306        2.9591092401
 H         -7.8957612141        2.1594763855        1.4113318214
 H         -7.2421811703        0.7859737815       -0.5712700132
 H         -5.9512596674       -3.2103067119        0.4603005029
  54
  -92.5186059969000       9.541614545995515E-002 !
 C         -5.6339055298       -2.7788587722       -2.0803046687
 C         -5.2064308659       -1.6574635440       -2.7769239192
 C         -4.2291570249       -0.8554666456       -2.2194357333
 C         -3.7253662465       -1.2065781215       -0.9674616642
 C         -2.6496273532       -0.3947044784       -0.3508132803
 N         -1.4068296679       -0.7432167443       -0.5909248573
 C         -0.3792761518       -0.0614585808       -0.0748868250
 C          0.9461995653       -0.3797852251       -0.3143153998
 C          1.9584015421        0.4053754377        0.2595951673
 N          3.3196911496        0.1020604896        0.0590710774
 C          3.8809431308       -1.0326527293        0.6415552878
 C          3.1268479309       -1.9346776178        1.3841745014
 C          3.7166004739       -3.0573194487        1.9410387888
 C          5.0676059106       -3.2947239363        1.7723992598
 C          5.8375333242       -2.3955084181        1.0514220417
 C          5.2555973605       -1.2710678234        0.4937476644
 O          6.0791372791       -0.4155431693       -0.1898317724
 C          5.5160429242        0.7068288685       -0.7367942358
 C          6.3571514195        1.5669083935       -1.4201026724
 C          5.8496154957        2.7080423620       -2.0212690932
 C          4.4959807735        2.9772746466       -1.9455164279
 C          3.6489038906        2.1229343572       -1.2598389083
 C          4.1448496832        0.9850846905       -0.6323745805
 C          1.5851834762        1.4881851886        1.0432215452
 N          0.3259584594        1.8130390663        1.2646202408
 C         -0.6712644997        1.1004721394        0.7608079098
 N         -1.9245771063        1.4190310804        0.9923284699
 C         -2.9388868025        0.7103907437        0.4737709288
 C         -4.2920519258        1.1030537221        0.7993413147
 C         -4.5180339475        2.1633349251        1.6917065091
 C         -5.8177435348        2.5109487830        1.9887113083
 C         -6.8608716270        1.8063763196        1.3965155801
 C         -6.5363982269        0.7795402852        0.5222567648
 N         -5.2991177545        0.4391045075        0.2317718970
 N         -4.1140848815       -2.2882273197       -0.3130209263
 C         -5.0467432573       -3.0496074052       -0.8553433800
 H         -6.4000512066       -3.4253127743       -2.4796810372
 H         -5.6292757601       -1.4141186574       -3.7414362432
 H         -3.8656106471        0.0251526333       -2.7256766557
 H          1.1893280292       -1.2162751466       -0.9491624487
 H          2.0739916912       -1.7538160889        1.5307198545
 H          3.1096392969       -3.7435000293        2.5107542652
 H          5.5287007699       -4.1692406325        2.2031845449
 H          6.8963056501       -2.5447693124        0.9129744943
 H          7.4059709115        1.3223964257       -1.4715108565
 H          6.5124883758        3.3748372073       -2.5494507357
 H          4.0877467885        3.8555252657       -2.4208724698
 H          2.5926606084        2.3362857120       -1.2116689085
 H          2.3264098326        2.1203535954        1.5119619876
 H         -3.6689563740        2.6730423688        2.1180839535
 H         -6.0247916999        3.3206937797        2.6741035115
 H         -7.8909570974        2.0474355140        1.6063844792
 H         -7.3041699111        0.1983493498        0.0265237071
 H         -5.3320346456       -3.9174272701       -0.2744240142
