  54
        -92.85524640
 C         -5.6815999281        2.4235570903       -2.4407071124
 C         -4.7000564950        3.1763857271       -1.8140376494
 C         -3.6913092595        2.5245616359       -1.1288562113
 C         -3.7123821674        1.1307506352       -1.0866585684
 C         -2.6521992094        0.3958008279       -0.3877929699
 N         -1.3981288534        0.7673284258       -0.5862514263
 C         -0.3806003924        0.0748998382       -0.0790788164
 C          0.9506804849        0.4112705928       -0.2746323733
 C          1.9571645012       -0.4200382395        0.2409167289
 N          3.3183908668       -0.1005020394        0.0775705404
 C          4.1633834829       -0.9452232961       -0.6391438129
 C          3.6904277574       -2.0598110081       -1.3239120513
 C          4.5571338134       -2.8738448061       -2.0334441734
 C          5.9083623325       -2.5859619816       -2.0791409508
 C          6.3930715786       -1.4657330457       -1.4229336955
 C          5.5322618456       -0.6469344193       -0.7136804188
 O          6.0755450262        0.4572515028       -0.1124923063
 C          5.2336509182        1.2746442380        0.5938508838
 C          5.7967863989        2.3803163749        1.2060488689
 C          5.0086929544        3.2417083235        1.9528299185
 C          3.6583791298        2.9834219726        2.0937729695
 C          3.0880354259        1.8785183054        1.4838762030
 C          3.8597339089        1.0160320861        0.7124065886
 C          1.5786716274       -1.5672965363        0.9229202552
 N          0.3138212128       -1.8992104032        1.1147325405
 C         -0.6749587393       -1.1421540025        0.6756800216
 N         -1.9345050956       -1.4439175199        0.9200874722
 C         -2.9361397087       -0.6967846387        0.4527674419
 C         -4.2900713197       -1.0116407256        0.8836503368
 C         -4.6130455720       -2.3216406380        1.2546455987
 C         -5.9040964536       -2.5921564955        1.6607950883
 C         -6.8309754320       -1.5585389900        1.6950680117
 C         -6.4034895168       -0.2888121001        1.3337471399
 N         -5.1748009174       -0.0190011217        0.9466327875
 N         -4.6399683732        0.4102346462       -1.7079191413
 C         -5.5938921361        1.0407204757       -2.3610116326
 H         -6.4878114174        2.8937891869       -2.9821298353
 H         -4.7207836987        4.2560416704       -1.8609808486
 H         -2.9029594161        3.0640834137       -0.6288266025
 H          1.2010019387        1.2869799813       -0.8510477894
 H          2.6362809555       -2.2868617910       -1.3034905640
 H          4.1655999629       -3.7346423515       -2.5526510945
 H          6.5862895678       -3.2207911016       -2.6272036281
 H          7.4390209890       -1.2054027634       -1.4503334312
 H          6.8558575882        2.5446927532        1.0888345047
 H          5.4551224715        4.1018619988        2.4259210000
 H          3.0369133956        3.6389030920        2.6838069561
 H          2.0360996429        1.6798365357        1.6123897528
 H          2.3137733464       -2.2414715758        1.3388468713
 H         -3.8508842926       -3.0829782924        1.2118118145
 H         -6.1889482340       -3.5942085083        1.9483309604
 H         -7.8509163329       -1.7298168093        2.0019223605
 H         -7.0770090087        0.5586808876        1.3630856890
 H         -6.3211070939        0.4040828765       -2.8488513006
  54
        -92.85478285
 C         -5.6242748062        1.3438720830       -3.2553577691
 C         -4.6736994698        2.2873096250       -2.8965500710
 C         -3.6830570314        1.9319477718       -1.9999411872
 C         -3.6910816359        0.6372418216       -1.4820851655
 C         -2.6458114756        0.2171687809       -0.5398775360
 N         -1.3883030032        0.4875450657       -0.8507096341
 C         -0.3799146521        0.0560110650       -0.0975774495
 C          0.9520147991        0.3509861124       -0.3523107378
 C          1.9497256904       -0.2036427897        0.4622015287
 N          3.3151226534        0.0441807766        0.2122778446
 C          3.9369689814       -0.5148599338       -0.9017598362
 C          3.2410685027       -1.2753308799       -1.8352125646
 C          3.8906262289       -1.8100671782       -2.9353536483
 C          5.2446271273       -1.6017029046       -3.1182449702
 C          5.9564948699       -0.8597222020       -2.1887168922
 C          5.3142453384       -0.3219908395       -1.0876114646
 O          6.0809435243        0.3891567685       -0.2025127798
 C          5.4588898641        0.9100565880        0.9012798788
 C          6.2436074697        1.6184485197        1.7936624952
 C          5.6751049679        2.1900418330        2.9212163011
 C          4.3175629880        2.0579123792        3.1455278131
 C          3.5261784072        1.3490456951        2.2573415220
 C          4.0834526574        0.7540614540        1.1305093852
 C          1.5651407425       -1.0284955017        1.5082730232
 N          0.2977736138       -1.2807078650        1.7881312673
 C         -0.6847162060       -0.7817708316        1.0609468881
 N         -1.9482287552       -1.0012173283        1.3686207899
 C         -2.9430708003       -0.5042017662        0.6301325140
 C         -4.3095270554       -0.7052630166        1.0905625892
 C         -4.6232322730       -1.8200456477        1.8755245074
 C         -5.9269501551       -1.9814994642        2.2994550857
 C         -6.8742824113       -1.0311114688        1.9423368040
 C         -6.4551479692        0.0540530566        1.1854733343
 N         -5.2153880634        0.2176765724        0.7749298117
 N         -4.5875292546       -0.2726581164       -1.8455261154
 C         -5.5244017219        0.0745284535       -2.7036067356
 H         -6.4160023645        1.5825475248       -3.9483917247
 H         -4.7047980250        3.2853371446       -3.3105547373
 H         -2.9183992778        2.6274423783       -1.6927174174
 H          1.2078624772        1.0008533477       -1.1731878739
 H          2.1863778190       -1.4519299772       -1.6967080291
 H          3.3281693896       -2.3942096836       -3.6469438600
 H          5.7527077852       -2.0175321169       -3.9737376869
 H          7.0156296692       -0.6891856545       -2.2962368315
 H          7.2972249017        1.7122166624        1.5850765366
 H          6.2941871895        2.7390223637        3.6128141552
 H          3.8627106537        2.5072178989        4.0144892740
 H          2.4664350808        1.2561318974        2.4356313647
 H          2.2956885736       -1.4987851451        2.1508383830
 H         -3.8447117226       -2.5219486969        2.1276236889
 H         -6.2058869652       -2.8355612573        2.9005124403
 H         -7.9043375459       -1.1233829564        2.2498784073
 H         -7.1456764659        0.8373228154        0.8986092778
 H         -6.2280884651       -0.7062624273       -2.9631818649
  54
        -92.85463237
 C         -5.7048953087        1.9201691671       -2.8630809404
 C         -4.7192726704        2.7788974464       -2.4007999216
 C         -3.7037193760        2.2705206587       -1.6120580214
 C         -3.7219814064        0.9108459155       -1.3026239822
 C         -2.6570536440        0.3233024360       -0.4835896166
 N         -1.4051743379        0.6675062458       -0.7414519787
 C         -0.3845141107        0.0801061405       -0.1217572416
 C          0.9450954234        0.4177166689       -0.3370922756
 C          1.9523823612       -0.3227624112        0.2961400286
 N          3.3186238066       -0.0154188897        0.1011234425
 C          4.0820962332       -0.7584186673       -0.7911727098
 C          3.5140687797       -1.7179283092       -1.6214594201
 C          4.2988876606       -2.4283002475       -2.5143204887
 C          5.6586325570       -2.1913762919       -2.5913771396
 C          6.2392302087       -1.2347824785       -1.7726553133
 C          5.4618862803       -0.5196565739       -0.8794700315
 O          6.0924231120        0.4185699473       -0.1047205581
 C          5.3297605776        1.1184380227        0.7933214403
 C          5.9758913207        2.0454014384        1.5913068455
 C          5.2598786710        2.7850447935        2.5200061024
 C          3.8970790361        2.5925518572        2.6486758042
 C          3.2431510344        1.6652551845        1.8548504116
 C          3.9466430594        0.9183789522        0.9167483366
 C          1.5865661513       -1.3782266071        1.1164618304
 N          0.3237242986       -1.6894227466        1.3539724784
 C         -0.6691982277       -1.0112484326        0.8078222233
 N         -1.9269973342       -1.2783457542        1.1021664675
 C         -2.9325444189       -0.6187854451        0.5252523866
 C         -4.2846259804       -0.8627601509        1.0066382403
 C         -4.6089734181       -2.0970412830        1.5795814159
 C         -5.8967814587       -2.2930308172        2.0363162518
 C         -6.8181771714       -1.2608233069        1.9194975934
 C         -6.3892831377       -0.0653589367        1.3604252167
 N         -5.1640700055        0.1330286465        0.9227536607
 N         -4.6540127895        0.0848228068       -1.7669101884
 C         -5.6143013496        0.5782241998       -2.5201711686
 H         -6.5165167863        2.2778315419       -3.4774182933
 H         -4.7417767998        3.8293227821       -2.6539508073
 H         -2.9114438133        2.8953447642       -1.2323014126
 H          1.1919146512        1.2255078653       -1.0061424599
 H          2.4526125749       -1.9029280320       -1.5650282671
 H          3.8379888900       -3.1682405961       -3.1498648530
 H          6.2721654442       -2.7439854121       -3.2851557087
 H          7.2963851425       -1.0271868087       -1.8119015307
 H          7.0398820898        2.1710278741        1.4718833463
 H          5.7716069231        3.5049218090        3.1387782021
 H          3.3327978033        3.1616382683        3.3708360842
 H          2.1807203318        1.5125618027        1.9612113511
 H          2.3283777289       -1.9904085583        1.6089319072
 H         -3.8505418333       -2.8599663272        1.6490901428
 H         -6.1831988413       -3.2363566239        2.4792440962
 H         -7.8351824230       -1.3758394378        2.2605331880
 H         -7.0584989956        0.7805513942        1.2643028395
 H         -6.3447451604       -0.1400147968       -2.8705654111
  54
        -92.85452097
 C         -5.6805444860        1.6593249096       -3.0311871774
 C         -5.0105057652        2.5875100068       -2.2489385491
 C         -4.0036230323        2.1520551346       -1.4072151162
 C         -3.7191527361        0.7889069226       -1.3717272504
 C         -2.6436279386        0.2761027457       -0.4961686852
 N         -1.3973863286        0.5551833351       -0.8138140215
 C         -0.3761494210        0.0766939875       -0.0980147061
 C          0.9516698949        0.3584395424       -0.3767904507
 C          1.9568303342       -0.2075786717        0.4210776238
 N          3.3231923157        0.0388703320        0.1631751514
 C          3.9778256245       -0.6449764901       -0.8567047581
 C          3.3047959231       -1.5026761708       -1.7195362572
 C          3.9864522833       -2.1651740088       -2.7267678315
 C          5.3478927864       -1.9857010191       -2.8850771739
 C          6.0348708437       -1.1400380734       -2.0277381711
 C          5.3608683767       -0.4738957132       -1.0199112911
 O          6.0994658899        0.3418606383       -0.2030561117
 C          5.4437146854        0.9854883280        0.8133771248
 C          6.1979588074        1.7958502317        1.6429249312
 C          5.5923902977        2.4867970112        2.6811543918
 C          4.2299036476        2.3675534399        2.8823463226
 C          3.4685469288        1.5566909267        2.0573874071
 C          4.0623216412        0.8491762017        1.0179910627
 C          1.5813499641       -1.0321263430        1.4706136591
 N          0.3197811036       -1.2935198374        1.7581719905
 C         -0.6720865828       -0.7884623382        1.0412628320
 N         -1.9281337257       -1.0374338560        1.3427370217
 C         -2.9350565780       -0.5221545392        0.6254790752
 C         -4.2958408168       -0.7995742686        1.0388495540
 C         -4.5568984924       -1.8494501763        1.9305810350
 C         -5.8638257852       -2.0973238379        2.2929019830
 C         -6.8739868476       -1.2975518494        1.7708231679
 C         -6.5112635502       -0.2679108702        0.9146929988
 N         -5.2673568058       -0.0216898837        0.5625741369
 N         -4.3404893681       -0.0957944236       -2.1381887439
 C         -5.2951175188        0.3306953909       -2.9420649651
 H         -6.4764221315        1.9587181985       -3.6953924739
 H         -5.2690575107        3.6358768988       -2.2957601837
 H         -3.4530944048        2.8376062581       -0.7828139093
 H          1.2002514619        1.0089374772       -1.1992532662
 H          2.2439217345       -1.6523841913       -1.5967016473
 H          3.4439814693       -2.8248205115       -3.3854956283
 H          5.8809961392       -2.5015524195       -3.6678443556
 H          7.0980316898       -0.9857477992       -2.1213652220
 H          7.2575768464        1.8728088922        1.4582271210
 H          6.1877633622        3.1162118513        3.3233667635
 H          3.7485630722        2.9067192840        3.6831772605
 H          2.4050143165        1.4693105157        2.2156645408
 H          2.3197205817       -1.4971275369        2.1084312386
 H         -3.7315991055       -2.4334834503        2.3046210857
 H         -6.1002386647       -2.9036913858        2.9725985507
 H         -7.9087904751       -1.4637778307        2.0256796632
 H         -7.2527625976        0.3979145786        0.4909911453
 H         -5.7701413568       -0.4335430513       -3.5437894171
  54
        -92.85442822
 C         -5.5754735057        1.2604287193       -3.3204028413
 C         -4.8327406742        2.2897991190       -2.7631259925
 C         -3.8651560721        1.9849214445       -1.8229496580
 C         -3.6888575892        0.6497921658       -1.4665795459
 C         -2.6456603239        0.2721398214       -0.4949677337
 N         -1.3947482251        0.5666060570       -0.7930493648
 C         -0.3848351417        0.1666209976       -0.0200926329
 C          0.9448566648        0.4501613529       -0.2886484844
 C          1.9459821132       -0.0775143485        0.5416769928
 N          3.3095565643        0.1113114817        0.2436354372
 C          3.8603574764       -0.4807691949       -0.8929982564
 C          3.0939649927       -1.2025118216       -1.8021066379
 C          3.6726373381       -1.7596795745       -2.9302103890
 C          5.0263312630       -1.6143873191       -3.1670075981
 C          5.8099340229       -0.9215989190       -2.2577464102
 C          5.2388356223       -0.3649421209       -1.1270143492
 O          6.0783724860        0.2829269931       -0.2598266428
 C          5.5271132967        0.8306828317        0.8679502334
 C          6.3862483072        1.4712813340        1.7429570503
 C          5.8923330119        2.0760235497        2.8880014631
 C          4.5342790537        2.0492189116        3.1445551321
 C          3.6694437902        1.4042358090        2.2763904639
 C          4.1514374334        0.7688821401        1.1368004571
 C          1.5591624348       -0.8369395222        1.6359627258
 N          0.2930635304       -1.0717027903        1.9311065932
 C         -0.6909529208       -0.6277447355        1.1679461032
 N         -1.9509095920       -0.8757806484        1.4577132620
 C         -2.9478145741       -0.4431468891        0.6772418927
 C         -4.3132816165       -0.7287346107        1.0789510319
 C         -4.5700458470       -1.7824877032        1.9657530458
 C         -5.8771432803       -2.0417700158        2.3212588131
 C         -6.8891987236       -1.2472941976        1.7964758515
 C         -6.5291352624       -0.2110438864        0.9468321136
 N         -5.2853862438        0.0463077375        0.6011436694
 N         -4.3851197956       -0.3373145311       -2.0147334359
 C         -5.3022566672       -0.0367958394       -2.9122657667
 H         -6.3402679304        1.4570066609       -4.0557223228
 H         -5.0028373375        3.3149065274       -3.0605210860
 H         -3.2585418595        2.7507500726       -1.3663368867
 H          1.1989164748        1.0666868356       -1.1355306052
 H          2.0387219056       -1.3339214308       -1.6247938076
 H          3.0535994416       -2.3100915285       -3.6214233144
 H          5.4783249574       -2.0427404969       -4.0474169641
 H          6.8718763489       -0.8053161573       -2.4032449220
 H          7.4380575412        1.4867779127        1.5065029636
 H          6.5691452673        2.5699690693        3.5668931476
 H          4.1369278276        2.5313195769        4.0240886325
 H          2.6101821538        1.3939071264        2.4798583062
 H          2.2893159724       -1.2749918101        2.3017306898
 H         -3.7425905845       -2.3616413878        2.3428697342
 H         -6.1106028842       -2.8522197620        2.9971358024
 H         -7.9242346923       -1.4212544626        2.0456737800
 H         -7.2739279885        0.4535072616        0.5268729439
 H         -5.8382043089       -0.8805253683       -3.3279848092
  54
        -92.85437163
 C         -5.5945537949        1.6808760506       -3.1090575175
 C         -5.2175553627        2.4842627350       -2.0422950117
 C         -4.2521689945        2.0250216643       -1.1669761773
 C         -3.7088481148        0.7605348893       -1.3914736250
 C         -2.6439825400        0.2458087699       -0.4983182421
 N         -1.3971860583        0.4865475883       -0.8317905947
 C         -0.3788956341        0.0593161988       -0.0784555931
 C          0.9496229599        0.3041764660       -0.3794963989
 C          1.9508046563       -0.1719908915        0.4814933256
 N          3.3155679998        0.0363788812        0.1998511448
 C          3.9243059856       -0.6288426604       -0.8625913694
 C          3.2153772393       -1.4672314432       -1.7160057166
 C          3.8516309681       -2.1051393036       -2.7679017814
 C          5.2048733471       -1.9229918100       -2.9813806461
 C          5.9302139890       -1.1059896531       -2.1284015442
 C          5.3016978590       -0.4669139272       -1.0745673453
 O          6.0828063209        0.3103990280       -0.2602729157
 C          5.4734311604        0.9391154803        0.7929790563
 C          6.2719641670        1.7170153966        1.6123248120
 C          5.7162719869        2.4028002592        2.6810089733
 C          4.3572676417        2.3158785719        2.9178702416
 C          3.5526527247        1.5359691416        2.1042816771
 C          4.0972794000        0.8239848476        1.0408740763
 C          1.5634963643       -0.8668059754        1.6186227235
 N          0.3005611172       -1.0914175609        1.9264201643
 C         -0.6862044563       -0.6782813966        1.1443432287
 N         -1.9428046724       -0.9133721229        1.4469358685
 C         -2.9471081089       -0.4856514270        0.6669827776
 C         -4.3035250755       -0.8104739721        1.0488983033
 C         -4.5404801025       -1.6117263247        2.1773604100
 C         -5.8427885653       -1.9106760118        2.5133872075
 C         -6.8777352644       -1.4100181404        1.7301494537
 C         -6.5429470641       -0.6212969983        0.6393517978
 N         -5.3030863480       -0.3298302268        0.3093010891
 N         -4.0493059989        0.0036503912       -2.4213154237
 C         -4.9709811565        0.4525196704       -3.2535991484
 H         -6.3499635520        2.0018311519       -3.8095768823
 H         -5.6700087800        3.4551256645       -1.8973479911
 H         -3.9273265457        2.6160012592       -0.3248617809
 H          1.2029795215        0.8691172670       -1.2618285122
 H          2.1612569187       -1.6246050062       -1.5524312503
 H          3.2791649789       -2.7485528537       -3.4176117770
 H          5.7021202849       -2.4168772760       -3.8010064829
 H          6.9894812798       -0.9537476625       -2.2596286721
 H          7.3261989240        1.7739511968        1.3936958513
 H          6.3461661275        3.0046027043        3.3166652146
 H          3.9116873211        2.8558484245        3.7387437028
 H          2.4918648167        1.4793252854        2.2913899575
 H          2.2960594408       -1.2587363397        2.3103690186
 H         -3.6974377070       -1.9694379988        2.7464421323
 H         -6.0581008138       -2.5273634500        3.3745815025
 H         -7.9094375820       -1.6245642657        1.9599120579
 H         -7.3042071128       -0.1986950488       -0.0047741662
 H         -5.2162648556       -0.2096658373       -4.0741575339
