  66
       -109.14247850
 Br        -1.2690828016        2.6703055793       -0.5939007898
 C         -0.5736317129        0.9087885693       -0.3201719632
 C          0.7752070754        0.7793729123       -0.2943448686
 C          1.4210036542       -0.4775598510       -0.0929781883
 C          2.8083197316       -0.6300443107       -0.0722678742
 C          3.7521798771        0.3650226116       -0.2708565081
 C          5.1547854447        0.1915116982       -0.2397799352
 C          5.7951304607       -1.0371717521        0.0447223855
 C          7.1616265749       -1.1404907095        0.0613874527
 C          7.9658655991       -0.0238851648       -0.1993933335
 N          9.3514065836       -0.1442450636       -0.1868205974
 C         10.0741317541       -1.2051873670       -0.6784970687
 N         11.3536576615       -1.0507343157       -0.6085352052
 C         11.5465235392        0.1751687978       -0.0169495466
 C         12.7237075771        0.8264238157        0.3257718403
 C         12.6185942545        2.0573258456        0.9423082462
 C         11.3775644121        2.6247443189        1.2304229246
 C         10.1943235731        1.9933001235        0.8970744395
 C         10.2903397446        0.7704256982        0.2510398043
 C          7.3547865396        1.2005405074       -0.4956661108
 C          5.9887074901        1.3021675949       -0.5118665607
 C          0.5205376478       -1.5771857198        0.0899025481
 Br         1.2174479656       -3.3334039420        0.3919358215
 C         -0.8286192224       -1.4484691897        0.0601456363
 C         -1.4739830650       -0.1934574604       -0.1542059016
 C         -2.8604561334       -0.0408910859       -0.2004643817
 C         -3.8123048309       -1.0402685023       -0.0759036750
 C         -5.2126829842       -0.8508429579       -0.1241846115
 C         -5.8337106032        0.4059037161       -0.3122791478
 C         -7.1984150823        0.5302853476       -0.3371547025
 C         -8.0196803072       -0.5918582441       -0.1762350667
 N         -9.4048089150       -0.4677543779       -0.1991815628
 C        -10.2861243177       -1.3274782535       -0.8098317649
 N        -11.5212989579       -0.9602825525       -0.7332295011
 C        -11.5153696709        0.2098524480       -0.0115228122
 C        -12.5708184750        1.0152636720        0.3947953815
 C        -12.2703824952        2.1347162856        1.1450037769
 C        -10.9576606202        2.4434098557        1.5009275445
 C         -9.8931033306        1.6555364004        1.1064191345
 C        -10.1829383066        0.5446882434        0.3293331617
 C         -7.4282286275       -1.8507611768       -0.0120656058
 C         -6.0640984616       -1.9728236271        0.0166963435
 H          1.3912269911        1.6537301019       -0.4259001304
 H          3.1727476687       -1.6300008693        0.1097841857
 H          3.4153013516        1.3708742244       -0.4785113788
 H          5.2055693084       -1.9127383874        0.2647648766
 H          7.6284665656       -2.0847481386        0.2998443897
 H          9.5956297213       -2.0613179365       -1.1134080501
 H         13.6784340678        0.3703312293        0.1207144468
 H         13.5145409071        2.5915741585        1.2201617352
 H         11.3395425776        3.5809441801        1.7301163880
 H          9.2409124817        2.4331554474        1.1468392000
 H          7.9670420975        2.0546945069       -0.7417011329
 H          5.5293533153        2.2499935915       -0.7524569666
 H         -1.4454677156       -2.3203217329        0.2042857693
 H         -3.2191231638        0.9656159125       -0.3550935730
 H         -3.4856718072       -2.0605023145        0.0681753474
 H         -5.2310836068        1.2892108798       -0.4505087528
 H         -7.6495823750        1.4951859863       -0.5116480967
 H         -9.9510452337       -2.2027715503       -1.3320783470
 H        -13.5845310535        0.7577515463        0.1348616085
 H        -13.0675477372        2.7831311479        1.4757786881
 H        -10.7677735663        3.3183410023        2.1041083914
 H         -8.8841875202        1.8938100234        1.4068495838
 H         -8.0558801139       -2.7203740017        0.1153756384
 H         -5.6199975642       -2.9473672980        0.1586806508
  66
       -109.14246043
 Br        -1.4228313964        1.8890375687        2.3108962290
 C         -0.6189249488        0.6148931307        1.1313608723
 C          0.7355354805        0.5841815283        1.0908192768
 C          1.4569470664       -0.3202496647        0.2548048183
 C          2.8503748603       -0.3439184882        0.1750844219
 C          3.7309830297        0.4965854636        0.8367843930
 C          5.1399533123        0.4696245998        0.7234725864
 C          5.8539330098       -0.4734247784       -0.0516358308
 C          7.2212540046       -0.4341084680       -0.1399097361
 C          7.9519091936        0.5491171493        0.5378797535
 N          9.3388350620        0.5953219119        0.4464712215
 C         10.2096116843        0.8673631689        1.4746102477
 N         11.4555697666        0.7950866312        1.1452020517
 C         11.4666883829        0.4757724174       -0.1919983783
 C         12.5359174771        0.3049651201       -1.0610179024
 C         12.2492254976        0.0090158618       -2.3788108137
 C         10.9347917537       -0.0979578901       -2.8327524284
 C          9.8566936200        0.0683617225       -1.9842785417
 C         10.1354925955        0.3363828425       -0.6529243592
 C          7.2687419575        1.4776084737        1.3334918174
 C          5.9024494531        1.4368988605        1.4208009408
 C          0.6261650260       -1.2046871440       -0.5069272584
 Br         1.4306089029       -2.5138440625       -1.6472549239
 C         -0.7283370096       -1.1685716690       -0.4726389985
 C         -1.4499269804       -0.2430007390        0.3399260063
 C         -2.8434409610       -0.1713247543        0.3663278394
 C         -3.7249080833       -0.9103710375       -0.4067393088
 C         -5.1344264544       -0.8121448576       -0.3695729217
 C         -5.8463648834        0.0089244641        0.5356360096
 C         -7.2150286305        0.0763392015        0.5113362274
 C         -7.9498505245       -0.6678606138       -0.4195593035
 N         -9.3382564840       -0.5974480010       -0.4497249251
 C        -10.1986384375       -1.6505526891       -0.6505635834
 N        -11.4477905694       -1.3349203884       -0.5726860141
 C        -11.4729530353        0.0169773153       -0.3236184719
 C        -12.5517259197        0.8786231602       -0.1774203344
 C        -12.2794272795        2.2140464144        0.0435814406
 C        -10.9702416728        2.6914731432        0.1000159635
 C         -9.8828354827        1.8506696646       -0.0429310324
 C        -10.1464288163        0.5031039623       -0.2343919003
 C         -7.2682797860       -1.5086064219       -1.3088309442
 C         -5.9005771847       -1.5765683966       -1.2819292144
 H          1.2971363120        1.2628137425        1.7116698169
 H          3.2744008759       -1.0866528285       -0.4840383869
 H          3.3338157047        1.2604445969        1.4903331655
 H          5.3226750692       -1.2513775363       -0.5762135633
 H          7.7470084659       -1.1837954160       -0.7113469632
 H          9.8628426345        1.0820135175        2.4669797838
 H         13.5483054890        0.4124930926       -0.7073551844
 H         13.0574172929       -0.1317098655       -3.0805002928
 H         10.7537295101       -0.3118847811       -3.8752961780
 H          8.8445878536        0.0053316265       -2.3538880303
 H          7.8251780617        2.2403457864        1.8578582699
 H          5.3859648498        2.1679427433        2.0258068789
 H         -1.2901570788       -1.8644537207       -1.0739393173
 H         -3.2679658523        0.5507145140        1.0477206235
 H         -3.3274042477       -1.6145480426       -1.1240034694
 H         -5.3118828461        0.5844767733        1.2743453924
 H         -7.7383018874        0.6834669709        1.2341819252
 H         -9.8415873227       -2.6481756556       -0.8189221877
 H        -13.5605204747        0.5055613848       -0.2460256134
 H        -13.0952868852        2.9106143450        0.1640597953
 H        -10.8007950592        3.7461507099        0.2561947057
 H         -8.8755649413        2.2376526606       -0.0200545833
 H         -7.8275358643       -2.0841657354       -2.0315185363
 H         -5.3856405518       -2.2173170645       -1.9829488066
  66
       -109.14237752
 Br        -1.2586508383        2.6597314247        0.8501106501
 C         -0.5631693786        0.9150654559        0.4848272748
 C          0.7837635098        0.7701576855        0.5265750847
 C          1.4281320143       -0.4785284237        0.2749303614
 C          2.8147263614       -0.6362987403        0.2597914672
 C          3.7638958260        0.3564246846        0.4447459077
 C          5.1650096107        0.1786167569        0.3834881342
 C          5.7955969212       -1.0641609139        0.1407774743
 C          7.1602056540       -1.1682332062        0.0698408653
 C          7.9717026357       -0.0381256911        0.2291004578
 N          9.3551746845       -0.1555530631        0.1467219092
 C         10.1134820931       -1.1798012745        0.6613962721
 N         11.3854204392       -1.0260611073        0.5041611762
 C         11.5334656376        0.1588545346       -0.1770714547
 C         12.6825278171        0.7891751788       -0.6354574346
 C         12.5304332028        1.9753808295       -1.3255706086
 C         11.2699353850        2.5188877595       -1.5729414302
 C         10.1142115722        1.9080018556       -1.1246949457
 C         10.2592724571        0.7313236404       -0.4060550976
 C          7.3717412489        1.1991847166        0.4924152911
 C          6.0076186834        1.3006937421        0.5679647096
 C          0.5268079718       -1.5637969595        0.0228993894
 Br         1.2190669581       -3.3232390445       -0.2695428120
 C         -0.8198560372       -1.4172822824       -0.0249899725
 C         -1.4616606380       -0.1590725933        0.1808277305
 C         -2.8426637900        0.0210535432        0.0881999571
 C         -3.7825679678       -0.9393831637       -0.2495556104
 C         -5.1764098147       -0.7275462062       -0.3555692178
 C         -5.8106195228        0.5110195194       -0.1029391574
 C         -7.1685460811        0.6546558759       -0.2237989256
 C         -7.9689729663       -0.4289224246       -0.6042612404
 N         -9.3460255667       -0.2865547503       -0.7384306585
 C        -10.1211655956       -0.8340858081       -1.7326850257
 N        -11.3693315640       -0.5116805481       -1.6679647790
 C        -11.4872095850        0.2889202775       -0.5565423381
 C        -12.6105826431        0.8857682810       -0.0003876494
 C        -12.4381678166        1.6258007149        1.1523784800
 C        -11.1862103202        1.7601247621        1.7522096282
 C        -10.0557216866        1.1745405994        1.2146002683
 C        -10.2148799455        0.4520260477        0.0422113606
 C         -7.3620866710       -1.6619658091       -0.8745019560
 C         -6.0058565530       -1.8053647477       -0.7476125596
 H          1.3994541356        1.6238690620        0.7578067509
 H          3.1750923379       -1.6353184481        0.0653265348
 H          3.4327582056        1.3673659695        0.6367069455
 H          5.1998671749       -1.9514608947       -0.0014617450
 H          7.6189758109       -2.1242356471       -0.1354207919
 H          9.6678083413       -2.0074409012        1.1783678527
 H         13.6514677366        0.3509728869       -0.4602755905
 H         13.4036172697        2.4916672378       -1.6949196678
 H         11.1943366379        3.4389095115       -2.1328235235
 H          9.1435610557        2.3274435256       -1.3414761642
 H          7.9929935423        2.0651404829        0.6638443256
 H          5.5569004562        2.2594204844        0.7800483561
 H         -1.4373471022       -2.2777509612       -0.2241806749
 H         -3.2040991574        1.0189380318        0.2864475135
 H         -3.4485208108       -1.9433578592       -0.4704561164
 H         -5.2223549315        1.3686595738        0.1816577870
 H         -7.6265317397        1.6174881664       -0.0556342631
 H         -9.6977675628       -1.4428995317       -2.5080239617
 H        -13.5781043657        0.7584952701       -0.4578956143
 H        -13.2908278021        2.1046980234        1.6096058465
 H        -11.0977219078        2.3334481845        2.6626881138
 H         -9.0965973433        1.2688171518        1.7006202655
 H         -7.9742718213       -2.5040819848       -1.1616143391
 H         -5.5514747393       -2.7650141397       -0.9469564186
  66
       -109.14224070
 Br        -1.4398415959        2.7638552406        1.1498856029
 C         -0.6336462556        1.0726996477        0.7611225944
 C          0.7191652091        1.0405188127        0.6861794404
 C          1.4421862876       -0.1559619994        0.3980229736
 C          2.8286608828       -0.1928975553        0.2417947399
 C          3.7006323497        0.8794050995        0.3451163789
 C          5.0942340629        0.8369633310        0.1123234317
 C          5.7932021288       -0.3201743952       -0.3029458343
 C          7.1427659252       -0.2908452737       -0.5419071844
 C          7.8714984791        0.8928660696       -0.3748279541
 N          9.2357307258        0.9359719848       -0.6411111329
 C          9.9005176591        1.9664384992       -1.2630379255
 N         11.1561092799        1.7429276237       -1.4606582335
 C         11.3972970263        0.4967127634       -0.9327817629
 C         12.5815344363       -0.2228372734       -0.8487357760
 C         12.5373989019       -1.4593011745       -0.2361569160
 C         11.3529223730       -1.9657877475        0.2982483047
 C         10.1636702049       -1.2656218641        0.2247698765
 C         10.1919728561       -0.0362145314       -0.4154680073
 C          7.2003312580        2.0527429059        0.0335166869
 C          5.8519813140        2.0219064867        0.2714953788
 C          0.6175874066       -1.3190990422        0.2546526698
 Br         1.4298055907       -3.0227612363       -0.0601421868
 C         -0.7356792050       -1.2867469105        0.3275881261
 C         -1.4612289002       -0.0793299918        0.5584297777
 C         -2.8549714779       -0.0098404217        0.5643578966
 C         -3.7410706863       -1.0513886759        0.3405599806
 C         -5.1488908356       -0.9330320194        0.2842001642
 C         -5.8486622831        0.2794632632        0.4857519607
 C         -7.2134552584        0.3417750348        0.3761712522
 C         -7.9566060854       -0.8017945129        0.0603415163
 N         -9.3402503865       -0.7383319502       -0.0649475846
 C        -10.2392749563       -1.6759572863        0.3838856418
 N        -11.4753426912       -1.3584495284        0.1897191435
 C        -11.4486223771       -0.1417783026       -0.4498234859
 C        -12.4922952496        0.6431634422       -0.9214210478
 C        -12.1682009323        1.8243563883       -1.5585803346
 C        -10.8415427032        2.2138036423       -1.7418626363
 C         -9.7884364684        1.4473684459       -1.2799642070
 C        -10.1052996700        0.2736939562       -0.6135255770
 C         -7.2893096756       -2.0215169610       -0.1094109126
 C         -5.9250076686       -2.0817037906       -0.0016114122
 H          1.2773401226        1.9493237771        0.8404581556
 H          3.2536930336       -1.1566130966        0.0040755571
 H          3.3064927253        1.8489849356        0.6151046393
 H          5.2597475216       -1.2446386610       -0.4561451536
 H          7.6465978187       -1.1772270668       -0.8958792274
 H          9.3920708993        2.8554142638       -1.5827687020
 H         13.4969656042        0.1865159343       -1.2437968122
 H         13.4399196732       -2.0461261874       -0.1562710937
 H         11.3653707004       -2.9287613672        0.7859152051
 H          9.2599405971       -1.6601644686        0.6633519884
 H          7.7571734480        2.9668620794        0.1769647291
 H          5.3479690413        2.9216009416        0.5934147691
 H         -1.2935609207       -2.2005553952        0.2042201924
 H         -3.2773191857        0.9676875388        0.7422902339
 H         -3.3503464935       -2.0449188898        0.1710222667
 H         -5.3085320835        1.1772334447        0.7402938439
 H         -7.7279310993        1.2724984185        0.5609138797
 H         -9.9206016070       -2.5704656430        0.8833079421
 H        -13.5141000784        0.3241360268       -0.7959395857
 H        -12.9558323305        2.4588670818       -1.9359674469
 H        -10.6308069307        3.1367255918       -2.2607387019
 H         -8.7660450657        1.7496460106       -1.4483855721
 H         -7.8559488949       -2.9084478256       -0.3516852515
 H         -5.4207812616       -3.0254102749       -0.1511585164
  66
       -109.14205954
 Br        -1.2727798861        2.7238945258        0.4173555282
 C         -0.5723658303        0.9433330538        0.3953600751
 C          0.7763782607        0.8139226337        0.3884506594
 C          1.4234376914       -0.4585639573        0.3741191166
 C          2.8074745100       -0.6113394212        0.2781100345
 C          3.7408535654        0.4032116862        0.1363741931
 C          5.1339319920        0.2282333121       -0.0269366613
 C          5.7806107380       -1.0297069661       -0.0236760339
 C          7.1327749892       -1.1349890519       -0.2208170037
 C          7.9164429743        0.0077137798       -0.4249445643
 N          9.2832695489       -0.1152830423       -0.6499521180
 C          9.8898060413       -1.0858076514       -1.4119013885
 N         11.1669122701       -0.9424683698       -1.5313044645
 C         11.4838870899        0.1760558790       -0.7975445642
 C         12.7169277725        0.7676685665       -0.5587547598
 C         12.7443321454        1.8874851343        0.2484373589
 C         11.5815054290        2.4012276506        0.8220946105
 C         10.3445442158        1.8277005081        0.5963925236
 C         10.3033687826        0.7206644504       -0.2371973729
 C          7.2988574369        1.2643821631       -0.4301962087
 C          5.9472572082        1.3679991370       -0.2329964032
 C          0.5259047404       -1.5736850431        0.4420533308
 Br         1.2265905005       -3.3521853340        0.5248725767
 C         -0.8234609752       -1.4444975516        0.4408359176
 C         -1.4702958481       -0.1733681160        0.3804444619
 C         -2.8537449405       -0.0183385657        0.2857625495
 C         -3.8010784337       -1.0270898175        0.2127391829
 C         -5.1907564547       -0.8356928784        0.0352306015
 C         -5.8030699709        0.4328700199       -0.0917714844
 C         -7.1522349480        0.5562699371       -0.2993632461
 C         -7.9665675539       -0.5788145287       -0.3890321817
 N         -9.3307734419       -0.4581477727       -0.6316798334
 C        -10.0721325157       -1.2527250500       -1.4737041904
 N        -11.3050084764       -0.8900253277       -1.5934330902
 C        -11.4485732455        0.2073589426       -0.7777719507
 C        -12.5712460917        0.9774133799       -0.5054132233
 C        -12.4304341523        2.0215781994        0.3868538084
 C        -11.2118775573        2.2881851987        1.0109481060
 C        -10.0825274692        1.5347247395        0.7528331496
 C        -10.2071898450        0.5029953941       -0.1648642558
 C         -7.3835516685       -1.8464058241       -0.2655506861
 C         -6.0354998800       -1.9678885380       -0.0543836497
 H          1.3910980479        1.6990515737        0.3937810526
 H          3.1752502661       -1.6264525580        0.2887111750
 H          3.3986668616        1.4283515209        0.1180515609
 H          5.2084749669       -1.9282765483        0.1431481984
 H          7.6072034110       -2.1050516327       -0.2005276558
 H          9.3254620122       -1.8636851155       -1.8888485079
 H         13.6135317876        0.3508170661       -0.9875917365
 H         13.6864119303        2.3737873451        0.4519637955
 H         11.6491560899        3.2680017251        1.4621153059
 H          9.4560305855        2.2222859840        1.0652536052
 H          7.8892866103        2.1464746096       -0.6256897840
 H          5.4804805982        2.3421895308       -0.2529190478
 H         -1.4391275519       -2.3280349162        0.4831487861
 H         -3.2116544301        0.9993130875        0.2416003906
 H         -3.4764423186       -2.0564934275        0.2706162001
 H         -5.2036905566        1.3276991178       -0.0423946164
 H         -7.5905586979        1.5338448314       -0.4303476258
 H         -9.6338353360       -2.0757244297       -2.0044441681
 H        -13.5146474986        0.7506474736       -0.9746193902
 H        -13.2833588874        2.6408861903        0.6199210833
 H        -11.1493526461        3.1025518529        1.7168851482
 H         -9.1512604307        1.7384925405        1.2590146246
 H         -8.0077404283       -2.7261199015       -0.3197106299
 H         -5.5992904643       -2.9509731362        0.0478547837
  66
       -109.14166035
 Br        -1.4359609473        3.0332331681       -0.0488217411
 C         -0.6257019693        1.3415046264        0.3286424454
 C          0.7287525506        1.2985817381        0.3457460570
 C          1.4526255832        0.0958061790        0.6060089374
 C          2.8410289958        0.0003533435        0.5051585415
 C          3.7197426878        1.0200181426        0.1744151360
 C          5.1075494147        0.8708152442       -0.0489460088
 C          5.7823960980       -0.3718282047       -0.0236574472
 C          7.1212197028       -0.4623178968       -0.3033451168
 C          7.8635152655        0.6826146232       -0.6166432578
 N          9.2129808427        0.5918048558       -0.9401883297
 C          9.8489788535        1.2983458308       -1.9337613409
 N         11.0890862561        0.9809338721       -2.0976377842
 C         11.3499375815        0.0117712893       -1.1580401747
 C         12.5304249389       -0.6615550494       -0.8744877526
 C         12.5112142345       -1.5819928763        0.1543336158
 C         11.3560290424       -1.8183072349        0.8992228496
 C         10.1709218031       -1.1591244040        0.6326880752
 C         10.1724876507       -0.2554913889       -0.4187786915
 C          7.2184975623        1.9259463501       -0.6404653242
 C          5.8803304405        2.0145483529       -0.3622717569
 C          0.6254174550       -1.0270954254        0.9353139387
 Br         1.4370719417       -2.6911712580        1.4177188216
 C         -0.7290684628       -0.9839877723        0.9192022493
 C         -1.4525953863        0.1958227009        0.5685270951
 C         -2.8402382017        0.2293801133        0.4255072582
 C         -3.7186387074       -0.8261512321        0.6132001415
 C         -5.1061985728       -0.7997569109        0.3443025755
 C         -5.7803008916        0.3083669952       -0.2194256765
 C         -7.1201285298        0.2586557993       -0.5045507965
 C         -7.8641208820       -0.8965755602       -0.2364310302
 N         -9.2159155065       -0.9646066248       -0.5558970482
 C         -9.8602864224       -2.0537433997       -1.0936710497
 N        -11.1024386314       -1.8469695482       -1.3763140154
 C        -11.3558350266       -0.5488641113       -1.0010212345
 C        -12.5346760840        0.1822668060       -1.0561155400
 C        -12.5067428576        1.4787498023       -0.5823190721
 C        -11.3445387074        2.0345124735       -0.0479641449
 C        -10.1611057219        1.3237326188        0.0159959221
 C        -10.1716607864        0.0314279413       -0.4859665484
 C         -7.2192163007       -2.0056696428        0.3260970078
 C         -5.8799780385       -1.9550349572        0.6088615795
 H          1.2883103813        2.1969332559        0.1426748375
 H          3.2623015266       -0.9777326099        0.6839867855
 H          3.3350909656        2.0226907950        0.0513131136
 H          5.2369206026       -1.2756952873        0.1955941532
 H          7.6039568627       -1.4274576030       -0.3204994803
 H          9.3300704469        2.0199714022       -2.5346168518
 H         13.4244435757       -0.4557180766       -1.4401041831
 H         13.4114809945       -2.1249249330        0.3994257213
 H         11.3885827456       -2.5324675432        1.7081509890
 H          9.2909947869       -1.3359775744        1.2321217943
 H          7.7874920988        2.8160183098       -0.8649146277
 H          5.3960932929        2.9801595144       -0.3788173384
 H         -1.2888357900       -1.8713369832        1.1655266900
 H         -3.2612681514        1.1744962615        0.1164967566
 H         -3.3345903226       -1.7678244874        0.9795771659
 H         -5.2335640182        1.2070789830       -0.4560162809
 H         -7.6025072216        1.1016954857       -0.9750690517
 H         -9.3461318168       -2.9750078207       -1.2883807474
 H        -13.4338633507       -0.2626186159       -1.4499283617
 H        -13.4055893720        2.0758226318       -0.6126387937
 H        -11.3702445305        3.0455392395        0.3296807128
 H         -9.2754405137        1.7593506940        0.4526978341
 H         -7.7891633824       -2.8953365643        0.5496947096
 H         -5.3958999776       -2.8151266866        1.0482923943
