  66
  -108.776196602500       0.293241062440090      !
 Br        -1.2683135827        2.7604526595        0.3903115064
 C         -0.5675679928        0.9812817481        0.3232873773
 C          0.7793762969        0.8490239999        0.3955252901
 C          1.4274550649       -0.4223283973        0.3579776095
 C          2.8144023086       -0.5766018029        0.3764600761
 C          3.7606812093        0.4356617275        0.3990300347
 C          5.1624428543        0.2540148538        0.3754352187
 C          5.7966797245       -1.0100663550        0.3456451231
 C          7.1618545238       -1.1207072619        0.3000776425
 C          7.9703526286        0.0223910513        0.2737902791
 N          9.3544791891       -0.1032665909        0.2192545639
 C         10.1117905373       -1.0258033185        0.9007307062
 N         11.3843019214       -0.8967852125        0.7267905546
 C         11.5339619133        0.1590461322       -0.1408743663
 C         12.6844017481        0.7077169520       -0.6915232848
 C         12.5339744512        1.7625195484       -1.5697236727
 C         11.2738760661        2.2539607959       -1.9104353032
 C         10.1167954551        1.7227540457       -1.3730454277
 C         10.2600118507        0.6820615847       -0.4683323355
 C          7.3666359702        1.2845846596        0.3249655043
 C          6.0019262634        1.3934647286        0.3755097153
 C          0.5295675760       -1.5368534016        0.2848714731
 Br         1.2267104776       -3.3185157525        0.2921128671
 C         -0.8170764456       -1.4040295368        0.2063119737
 C         -1.4623525335       -0.1308839703        0.1971015802
 C         -2.8431469950        0.0275657923        0.0686673055
 C         -3.7793654546       -0.9781919525       -0.1098927951
 C         -5.1729822202       -0.7907281003       -0.2568570437
 C         -5.8108891348        0.4708358122       -0.2166050770
 C         -7.1683818112        0.5886802038       -0.3667029018
 C         -7.9646582826       -0.5452142237       -0.5662120826
 N         -9.3411998334       -0.4308824666       -0.7293238848
 C        -10.1097479229       -1.1379593960       -1.6229402008
 N        -11.3588516507       -0.8127248222       -1.6191328666
 C        -11.4844306139        0.1608957415       -0.6566310879
 C        -12.6120022313        0.8386677362       -0.2131111046
 C        -12.4474125619        1.7602213137        0.8017257637
 C        -11.1990825066        1.9956789747        1.3774598097
 C        -10.0645200893        1.3321119377        0.9503953007
 C        -10.2157760574        0.4246132178       -0.0866302944
 C         -7.3539859811       -1.8043303223       -0.6248891511
 C         -5.9982238991       -1.9209445972       -0.4688936531
 H          1.3921806880        1.7309648849        0.4850640978
 H          3.1777009830       -1.5930440763        0.3523810028
 H          3.4266023113        1.4635252123        0.4188136582
 H          5.2034000571       -1.9103058967        0.3495420204
 H          7.6235364019       -2.0962496080        0.2587249363
 H          9.6647645744       -1.7573950755        1.5455666151
 H         13.6531562192        0.3073358802       -0.4409953085
 H         13.4082539334        2.2127541158       -2.0150830994
 H         11.1997075924        3.0680954683       -2.6156352223
 H          9.1465979745        2.0977262513       -1.6614904486
 H          7.9853139252        2.1686906754        0.3535286985
 H          5.5482529502        2.3728479405        0.4231795067
 H         -1.4318480387       -2.2873214910        0.1494814341
 H         -3.2075341075        1.0435134041        0.0966593286
 H         -3.4422280212       -2.0039802089       -0.1593552053
 H         -5.2258162292        1.3654317149       -0.0752368372
 H         -7.6290842497        1.5648032704       -0.3630616362
 H         -9.6808903742       -1.8658354214       -2.2842632720
 H        -13.5767110048        0.6345668064       -0.6481858496
 H        -13.3035036784        2.3060068836        1.1686789754
 H        -11.1167530449        2.7123950662        2.1806042067
 H         -9.1083069865        1.5083827735        1.4190189307
 H         -7.9629937105       -2.6841010524       -0.7714390748
 H         -5.5409566499       -2.8991132920       -0.5038282999
  66
  -108.775795388700       0.191796063062734      !
 Br        -1.2706837853        2.5312057383       -1.0354619358
 C         -0.5735134742        0.8414668099       -0.4695487137
 C          0.7753970810        0.7218493602       -0.4155717938
 C          1.4223839729       -0.4824503726       -0.0050211297
 C          2.8098425184       -0.6255597802        0.0479393100
 C          3.7529542854        0.3253479617       -0.3081256575
 C          5.1556829936        0.1632662580       -0.2413734194
 C          5.7967008313       -0.9993939846        0.2464417331
 C          7.1632713355       -1.0947485818        0.2871445495
 C          7.9668873067       -0.0346941308       -0.1511486180
 N          9.3525568205       -0.1474799696       -0.1115537715
 C         10.0799863979       -1.2733121062       -0.4165524693
 N         11.3588124211       -1.1058648797       -0.3665286379
 C         11.5460932707        0.2017436378        0.0143849091
 C         12.7201324316        0.9040863420        0.2503935552
 C         12.6092903653        2.2199441088        0.6535289313
 C         11.3656185667        2.8238871191        0.8370014339
 C         10.1854335568        2.1426192605        0.6069159826
 C         10.2873288409        0.8297572034        0.1733121484
 C          7.3552086759        1.1218946340       -0.6497116369
 C          5.9890557631        1.2156590858       -0.6896733118
 C          0.5229471914       -1.5389539949        0.3531338870
 Br         1.2214084893       -3.2187662571        0.9460867626
 C         -0.8262581524       -1.4206790367        0.2953960851
 C         -1.4727360893       -0.2204274432       -0.1276380758
 C         -2.8592088162       -0.0814748638       -0.2058011960
 C         -3.8098867264       -1.0489408692        0.0779373675
 C         -5.2103212593       -0.8740143564       -0.0084101408
 C         -5.8326135523        0.3323727438       -0.4057129563
 C         -7.1973855223        0.4471401919       -0.4579987257
 C         -8.0174582830       -0.6349951895       -0.1173498997
 N         -9.4026643079       -0.5202377913       -0.1677937265
 C        -10.2789543703       -1.4718073773       -0.6318699058
 N        -11.5152164650       -1.1003959360       -0.6237117185
 C        -11.5154938490        0.1732975731       -0.1062019229
 C        -12.5746902180        1.0320603568        0.1553003247
 C        -12.2805316430        2.2613161335        0.7108626857
 C        -10.9703962950        2.6284136172        1.0174519502
 C         -9.9021901787        1.7889303651        0.7647322388
 C        -10.1856134579        0.5637283476        0.1812926006
 C         -7.4246035282       -1.8475607025        0.2565637426
 C         -6.0604319073       -1.9593977421        0.3122940420
 H          1.3905227865        1.5639430915       -0.6872081915
 H          3.1750977040       -1.5804286037        0.3953266619
 H          3.4153803940        1.2818569852       -0.6815952132
 H          5.2075404660       -1.8279222873        0.6056754990
 H          7.6305179530       -1.9850478202        0.6814429704
 H          9.6055125546       -2.1910628600       -0.7058264486
 H         13.6768348074        0.4229201170        0.1288563920
 H         13.5026768029        2.7953627759        0.8435243418
 H         11.3230295963        3.8496469548        1.1708581857
 H          9.2298264394        2.6151966337        0.7752416024
 H          7.9672481819        1.9250561781       -1.0309049375
 H          5.5293001603        2.1091439528       -1.0866288500
 H         -1.4422874900       -2.2582165834        0.5790226207
 H         -3.2188687973        0.8844204647       -0.5272035540
 H         -3.4821757245       -2.0302117664        0.3910473384
 H         -5.2308597613        1.1821477355       -0.6854862652
 H         -7.6493559166        1.3684547634       -0.7925661121
 H         -9.9393369754       -2.4207072171       -0.9998467521
 H        -13.5864534696        0.7321886585       -0.0635679924
 H        -13.0807353390        2.9534349555        0.9252732259
 H        -10.7855089378        3.5918346355        1.4680352891
 H         -8.8954146057        2.0765379602        1.0267030454
 H         -8.0513463678       -2.6856906857        0.5232951966
 H         -5.6153279903       -2.8956362109        0.6163673057
  66
  -108.775681667100       0.170050087411701      !
 Br        -1.4263541674        1.3283756193        2.6898342914
 C         -0.6260223181        0.3089350395        1.2822460426
 C          0.7261250627        0.3387279410        1.1952932683
 C          1.4448937602       -0.3733652748        0.1884890299
 C          2.8300788428       -0.2937616075        0.0368023713
 C          3.7046408198        0.4515636842        0.8117050372
 C          5.0963628968        0.5772190219        0.5985384559
 C          5.7901828436       -0.0219340099       -0.4783097988
 C          7.1379442851        0.1618062272       -0.6487908446
 C          7.8699455621        0.9489547389        0.2482657308
 N          9.2321914203        1.1610615830        0.0660807077
 C          9.8940049450        2.3493889713        0.2672689677
 N         11.1476781646        2.3147333797       -0.0370723938
 C         11.3907299913        1.0284425771       -0.4569037361
 C         12.5743385164        0.4342821069       -0.8731709838
 C         12.5327345441       -0.9012116387       -1.2206898305
 C         11.3514794882       -1.6383574074       -1.1409725513
 C         10.1629033326       -1.0657814084       -0.7293956922
 C         10.1884531307        0.2824536998       -0.4072819260
 C          7.2038778032        1.5548174055        1.3214894865
 C          5.8573201500        1.3705873485        1.4902321504
 C          0.6172439856       -1.1608678742       -0.6765205918
 Br         1.4241379192       -2.2382137472       -2.0364864376
 C         -0.7353734574       -1.1892171459       -0.5909686479
 C         -1.4570865417       -0.4313072169        0.3797365634
 C         -2.8506232603       -0.3878382979        0.4393031883
 C         -3.7401733857       -1.0310232410       -0.4063289916
 C         -5.1481759455       -0.9098737092       -0.3616760806
 C         -5.8443249453       -0.1288357288        0.5900614142
 C         -7.2098009665       -0.0149715983        0.5574922647
 C         -7.9572792313       -0.6743589548       -0.4254916832
 N         -9.3417231381       -0.5493990633       -0.4690405322
 C        -10.2389208286       -1.5550179235       -0.7384931723
 N        -11.4758804546       -1.1925062719       -0.6685543648
 C        -11.4519294515        0.1456485717       -0.3542526220
 C        -12.4978041878        1.0437307443       -0.1887675313
 C        -12.1765307564        2.3546228214        0.1020437541
 C        -10.8506362943        2.7737578044        0.2098090733
 C         -9.7953703732        1.8960443530        0.0490647294
 C        -10.1091780636        0.5716660783       -0.2147561624
 C         -7.2933755513       -1.4818173136       -1.3577288518
 C         -5.9284003549       -1.5929109377       -1.3251087191
 H          1.2870067488        0.9260204396        1.9036624339
 H          3.2516480115       -0.8642174334       -0.7773044831
 H          3.3142179272        1.0054114582        1.6538139203
 H          5.2540021257       -0.6216695073       -1.1962969846
 H          7.6375616479       -0.2737573458       -1.5005433508
 H          9.3846694534        3.2284695697        0.6119694836
 H         13.4874467237        1.0057474320       -0.9094790834
 H         13.4348303396       -1.3934430752       -1.5511750370
 H         11.3659782497       -2.6852209286       -1.4039529930
 H          9.2618516214       -1.6545438774       -0.6505927197
 H          7.7633537773        2.1532173818        2.0251716104
 H          5.3573021614        1.8372131771        2.3265053858
 H         -1.2957361524       -1.8005477036       -1.2792754121
 H         -3.2699377379        0.2322459844        1.2172937205
 H         -3.3524451838       -1.6688115008       -1.1882520660
 H         -5.3007461272        0.3843395903        1.3670406043
 H         -7.7212691901        0.5649616344        1.3105785467
 H         -9.9180001018       -2.5567528015       -0.9498167609
 H        -13.5191722798        0.7167857905       -0.2961147020
 H        -12.9659146892        3.0782863426        0.2383235645
 H        -10.6422627993        3.8116497260        0.4214401388
 H         -8.7737699240        2.2384861360        0.1130007134
 H         -7.8633510454       -1.9949446115       -2.1181573698
 H         -5.4269366118       -2.2057558707       -2.0600547966
  66
  -108.775625318300       0.160206725556497      !
 Br        -1.4318384113        1.6343501104        2.4923667428
 C         -0.6226773419        0.4920500993        1.1879809365
 C          0.7319298384        0.4682975203        1.1476686542
 C          1.4570679119       -0.3423937678        0.2233824195
 C          2.8507121997       -0.3549719123        0.1449352327
 C          3.7280997313        0.4133880861        0.8929850472
 C          5.1373661829        0.4010778453        0.7808233895
 C          5.8550224104       -0.4544027132       -0.0869465971
 C          7.2224449116       -0.4034958859       -0.1673764157
 C          7.9495424893        0.5048381656        0.6112419603
 N          9.3365619486        0.5629603791        0.5284615761
 C         10.2045303438        0.7276385829        1.5814763826
 N         11.4513495734        0.6925510903        1.2492778323
 C         11.4660421148        0.5148384769       -0.1139508855
 C         12.5375110646        0.4378542306       -0.9935238714
 C         12.2543027676        0.2807880699       -2.3357159937
 C         10.9410853073        0.2193933072       -2.8014766891
 C          9.8608013839        0.2940462079       -1.9428269788
 C         10.1361465933        0.4219044386       -0.5900870048
 C          7.2626850566        1.3437545032        1.4979540972
 C          5.8962960871        1.2915648375        1.5772811795
 C          0.6298161717       -1.1438922647       -0.6286263410
 Br         1.4395040265       -2.3251116336       -1.8976792766
 C         -0.7248305348       -1.1141116230       -0.5939681434
 C         -1.4501410509       -0.2799447849        0.3092072886
 C         -2.8438578889       -0.2140474589        0.3396479781
 C         -3.7220784009       -0.8698622776       -0.5085513900
 C         -5.1318792041       -0.7787161433       -0.4646670125
 C         -5.8475171770       -0.0581473014        0.5197400186
 C         -7.2162650307        0.0088607625        0.4993706480
 C         -7.9474881845       -0.6352991796       -0.5059818965
 N         -9.3359718145       -0.5647334827       -0.5319183723
 C        -10.1936804144       -1.5926819218       -0.8438169473
 N        -11.4436651686       -1.2892770122       -0.7363307212
 C        -11.4722353325        0.0291146063       -0.3473288219
 C        -12.5531480838        0.8687153666       -0.1143984011
 C        -12.2841627624        2.1742179745        0.2456758126
 C        -10.9761183688        2.6455910707        0.3548333047
 C         -9.8866236148        1.8263946676        0.1273360742
 C        -10.1469418952        0.5057435410       -0.2046082375
 C         -7.2622105366       -1.3771603429       -1.4766686616
 C         -5.8944282993       -1.4449865360       -1.4537711196
 H          1.2907434241        1.0793442149        1.8374091001
 H          3.2777398364       -1.0239106131       -0.5872284452
 H          3.3278979152        1.1039691893        1.6218779776
 H          5.3265537688       -1.1742352474       -0.6912555478
 H          7.7510253433       -1.0883266330       -0.8128207224
 H          9.8551579093        0.8366876696        2.5900238733
 H         13.5489002181        0.5097173006       -0.6281518019
 H         13.0643093435        0.2157312341       -3.0463514759
 H         10.7627360214        0.1153161671       -3.8611017179
 H          8.8496346059        0.2681050490       -2.3194047966
 H          7.8163644862        2.0485245537        2.1005217598
 H          5.3769523129        1.9543619797        2.2541827098
 H         -1.2838691058       -1.7443583116       -1.2660698329
 H         -3.2713887291        0.4319799793        1.0917943364
 H         -3.3215286899       -1.4944252792       -1.2945688300
 H         -5.3158588491        0.4380093499        1.3158499739
 H         -7.7423897661        0.5360862101        1.2804922920
 H         -9.8341496119       -2.5665562000       -1.1147195012
 H        -13.5609978741        0.5029733594       -0.2240333005
 H        -13.1017574877        2.8528308308        0.4363909632
 H        -10.8092485328        3.6784723789        0.6208396674
 H         -8.8802283152        2.2107604896        0.1929449942
 H         -7.8186774813       -1.8750460035       -2.2569042983
 H         -5.3766160934       -2.0079465336       -2.2167217212
  66
  -108.775487789100       0.138508587318681      !
 Br        -1.2800944023        2.7522675962        0.0117073894
 C         -0.5759862105        0.9892853110        0.2516822240
 C          0.7730345319        0.8638004481        0.2690605331
 C          1.4227262903       -0.3955352352        0.4425185402
 C          2.8074734376       -0.5569999793        0.3752840572
 C          3.7394019471        0.4286133552        0.0912504896
 C          5.1335277091        0.2354190308       -0.0393047938
 C          5.7827329600       -1.0069678719        0.1494413373
 C          7.1359506856       -1.1362341218       -0.0248832608
 C          7.9181810821       -0.0332987508       -0.3898798467
 N          9.2862178060       -0.1841049163       -0.5891397899
 C          9.8980206163       -1.2535095475       -1.1994202831
 N         11.1753401382       -1.1256915766       -1.3332895065
 C         11.4868606194        0.0884736919       -0.7687270092
 C         12.7176522756        0.7117686674       -0.6135795308
 C         12.7392842676        1.9371274326        0.0222877629
 C         11.5729401883        2.5257605717        0.5104808640
 C         10.3381346027        1.9222516425        0.3656361323
 C         10.3028204049        0.7056626211       -0.2982617705
 C          7.2980799248        1.2076169290       -0.5802944780
 C          5.9454293326        1.3352458131       -0.4056672685
 C          0.5271675380       -1.4912865075        0.6683041952
 Br         1.2310882876       -3.2369873645        1.0116799994
 C         -0.8224390942       -1.3672055898        0.6429154471
 C         -1.4715791988       -0.1200777547        0.3957276433
 C         -2.8549154618        0.0158896596        0.2739743560
 C         -3.7998777937       -0.9952510958        0.3446341850
 C         -5.1891570544       -0.8353634798        0.1356218103
 C         -5.8034818634        0.3996300115       -0.1769566666
 C         -7.1519802288        0.4879758544       -0.4056817966
 C         -7.9636150460       -0.6502248681       -0.3325866918
 N         -9.3269964467       -0.5697203542       -0.5956574681
 C        -10.0630825558       -1.4802444784       -1.3161395310
 N        -11.2961593489       -1.1420603076       -1.4922710767
 C        -11.4454858602        0.0618856276       -0.8454465624
 C        -12.5708878701        0.8603984673       -0.6924596562
 C        -12.4360656568        2.0235797328        0.0390326150
 C        -11.2207720801        2.3813148560        0.6225908928
 C        -10.0887883454        1.6013083884        0.4813097874
 C        -10.2073759841        0.4467750220       -0.2770861222
 C         -7.3785742180       -1.8848462351       -0.0237498350
 C         -6.0312084311       -1.9707783006        0.2082292759
 H          1.3859312167        1.7419133200        0.1480749626
 H          3.1772551660       -1.5588091814        0.5348643420
 H          3.3952221841        1.4392872734       -0.0773248984
 H          5.2116997580       -1.8732326928        0.4428749779
 H          7.6122505485       -2.0917819145        0.1381573846
 H          9.3373290064       -2.0939578649       -1.5604294678
 H         13.6169518258        0.2393535658       -0.9736481031
 H         13.6794847480        2.4503371204        0.1566977509
 H         11.6360562077        3.4765644385        1.0179143805
 H          9.4467967142        2.3784788190        0.7685733666
 H          7.8875641400        2.0534591131       -0.8996231339
 H          5.4767712408        2.2949510181       -0.5689147836
 H         -1.4364925862       -2.2368183420        0.8108021867
 H         -3.2146905009        1.0153561708        0.0808603986
 H         -3.4734114747       -2.0044379736        0.5528930069
 H         -5.2061362163        1.2937044195       -0.2558363392
 H         -7.5917105578        1.4349547070       -0.6791878879
 H         -9.6208195627       -2.3705149048       -1.7197969766
 H        -13.5117824388        0.5653287254       -1.1274707776
 H        -13.2912467470        2.6679463026        0.1761470659
 H        -11.1629617179        3.2898401274        1.2028402467
 H         -9.1601419193        1.8789692750        0.9561987711
 H         -8.0007387811       -2.7647272353        0.0481003374
 H         -5.5934564743       -2.9273938886        0.4540880155
  66
  -108.774450166200       4.619747421029768E-002 !
 Br        -1.4312036999        2.3635183418        1.9053366826
 C         -0.6214852888        0.8219385648        1.1123472953
 C          0.7329748186        0.7814559415        1.0904172015
 C          1.4564117374       -0.3090180814        0.5195376961
 C          2.8440214845       -0.3146331822        0.3730667342
 C          3.7224114674        0.6838948637        0.7637303169
 C          5.1085964414        0.7150252379        0.4886279088
 C          5.7815243975       -0.2564018773       -0.2883647708
 C          7.1184846451       -0.1442513142       -0.5691169197
 C          7.8607718813        0.9392744416       -0.0843381057
 N          9.2081087818        1.0791801795       -0.3991314225
 C          9.8392705435        2.2587125425       -0.7172810459
 N         11.0778393503        2.1219731266       -1.0530217986
 C         11.3427487971        0.7769155628       -0.9490683053
 C         12.5238084856        0.0805210396       -1.1669063543
 C         12.5092803469       -1.2846422701       -0.9615619526
 C         11.3582201098       -1.9447388443       -0.5320388238
 C         10.1726198685       -1.2701036077       -0.3100899009
 C         10.1693390492        0.0965162323       -0.5434927464
 C          7.2176823084        1.9103729753        0.6940528954
 C          5.8813663910        1.7977232888        0.9724465709
 C          0.6293466508       -1.3860048933        0.0616230381
 Br         1.4411394237       -2.9732201965       -0.6329170461
 C         -0.7251385639       -1.3460127469        0.0844350817
 C         -1.4488128507       -0.2155554119        0.5710342655
 C         -2.8372357375       -0.1020557974        0.4902067828
 C         -3.7162349319       -1.0369616476       -0.0335049273
 C         -5.1053461237       -0.8486878208       -0.2158452803
 C         -5.7810007989        0.3625818648        0.0606661627
 C         -7.1226046413        0.5027158350       -0.1829877673
 C         -7.8668782409       -0.5599291431       -0.7091196733
 N         -9.2206863473       -0.4120309329       -0.9908379717
 C         -9.8700927552       -0.9094794753       -2.0960302325
 N        -11.1135833120       -0.5731432290       -2.1747305930
 C        -11.3625607604        0.1865730410       -1.0562613046
 C        -12.5405002121        0.7817692122       -0.6256173620
 C        -12.5075619824        1.4781293900        0.5660743320
 C        -11.3412364806        1.5683080796        1.3254678068
 C        -10.1586180000        0.9831422747        0.9146064757
 C        -10.1743414063        0.3080103684       -0.2962109317
 C         -7.2204295793       -1.7712555767       -0.9870077728
 C         -5.8794278125       -1.9091741608       -0.7445793856
 H          1.2927844805        1.6042971558        1.5038465352
 H          3.2647446813       -1.1808961095       -0.1154849526
 H          3.3386852662        1.5336428655        1.3106727627
 H          5.2358852727       -1.0937753320       -0.6929313612
 H          7.5995103944       -0.8753785619       -1.2006953127
 H          9.3179426406        3.1963978346       -0.7167757141
 H         13.4147383104        0.6021247392       -1.4763150753
 H         13.4101088604       -1.8568015449       -1.1242498472
 H         11.3944704424       -3.0106443130       -0.3647639911
 H          9.2960334033       -1.7909191756        0.0437698096
 H          7.7867858100        2.7404978343        1.0856831914
 H          5.3986381606        2.5507051782        1.5783805742
 H         -1.2848785599       -2.1879699080       -0.2886642195
 H         -3.2585563208        0.8218521124        0.8574687908
 H         -3.3315434093       -1.9949041749       -0.3541797662
 H         -5.2342134607        1.2070479519        0.4485839302
 H         -7.6064161636        1.4508680481       -0.0048688877
 H         -9.3586486566       -1.4934818441       -2.8365443279
 H        -13.4427824846        0.6880158846       -1.2075506331
 H        -13.4055849398        1.9549974205        0.9286925267
 H        -11.3629890861        2.1060136201        2.2613369885
 H         -9.2696141305        1.0423668149        1.5237362668
 H         -7.7904900741       -2.6005277508       -1.3790301355
 H         -5.3941327391       -2.8506257580       -0.9575262683
