  57
        -86.09866635
 C         -1.0891338475        3.4709043187       -2.3650382758
 C         -1.1351606659        2.2477726083       -3.0172438593
 C         -1.3670693227        1.0747430735       -2.3116065504
 C         -1.5528848857        1.1550357842       -0.9489752598
 C         -1.5084907436        2.3887775209       -0.2842149276
 C         -1.2758484583        3.5549215522       -0.9944436991
 C         -1.7281061014        2.1549214328        1.1342810665
 C         -1.7950454735        3.0310264817        2.2049070049
 C         -2.0259705785        2.5155697995        3.4702660073
 C         -2.1862968738        1.1519169529        3.6656598550
 C         -2.1192053391        0.2675619271        2.5973176075
 C         -1.8909854155        0.7766994132        1.3379291606
 C         -1.7719655500        0.0293807137        0.0330184244
 C         -2.9505583099       -0.8577398630       -0.2785585035
 C         -4.2745797503       -0.5111765903       -0.3851455527
 C         -5.2029040549       -1.5070942232       -0.6784180538
 C         -4.7982740013       -2.8262659619       -0.8580428150
 C         -3.4701571313       -3.1862769198       -0.7511992328
 C         -2.5276372661       -2.1969218877       -0.4597096107
 C         -1.1125937250       -2.2591676690       -0.2979556113
 C         -0.1972030406       -3.3242176194       -0.3525322755
 C          1.1320959079       -3.0819442755       -0.1573895017
 C          1.6463172949       -1.7632913597        0.0547374899
 C          3.0343398264       -1.5096592428        0.1317601469
 C          3.9277747447       -2.5016822989        0.6573864506
 C          5.1964284060       -2.1781143721        1.0417217460
 C          5.6905637976       -0.8762662818        0.8728150626
 C          4.9135262020        0.1021976369        0.2284309844
 C          5.4291607141        1.3822976625       -0.0442623573
 C          4.7120587750        2.2970310300       -0.7992569115
 C          3.4846878051        1.9395018806       -1.3222293653
 C          2.9438467456        0.6818418779       -1.0466134080
 C          3.5982800244       -0.2236169623       -0.2160090396
 C          0.6935659681       -0.7042881965        0.1802173972
 C         -0.6263761567       -0.9559090413       -0.0026226533
 H         -0.9050115910        4.3700253888       -2.9346344669
 H         -0.9878163545        2.2069040792       -4.0862486184
 H         -1.4002261580        0.1207918762       -2.8181075675
 H         -1.2376071306        4.5098895999       -0.4917351415
 H         -1.6723562809        4.0937863782        2.0579066235
 H         -2.0838670773        3.1843316855        4.3167675316
 H         -2.3669148747        0.7733660997        4.6611499428
 H         -2.2442777066       -0.7947352101        2.7491876814
 H         -4.5906162519        0.5123553182       -0.2441997559
 H         -6.2484399930       -1.2531006228       -0.7662045429
 H         -5.5392800170       -3.5793502044       -1.0839877473
 H         -3.1611548726       -4.2113458575       -0.8916833507
 H         -0.5462379094       -4.3251341545       -0.5611289429
 H          1.8295827493       -3.9001396491       -0.2481014967
 H          3.5535902877       -3.4953996272        0.8440630315
 H          5.8312517155       -2.9271906212        1.4923406590
 H          6.6967147228       -0.6348766987        1.1793942662
 H          6.4043582335        1.6416388733        0.3414506361
 H          5.1235528818        3.2765507453       -0.9929884386
 H          2.9318232080        2.6268131471       -1.9449897812
 H          2.0122849007        0.4038468728       -1.5160519303
 H          1.0291570709        0.2790844525        0.4733001260
  57
        -86.09847138
 C         -1.5171504217        3.2312452095       -2.9750756008
 C         -1.6159938839        1.9467950588       -3.4886191269
 C         -1.7044693539        0.8480006587       -2.6443731650
 C         -1.6935995397        1.0635261681       -1.2839268090
 C         -1.5951374721        2.3606798638       -0.7589290533
 C         -1.5057189170        3.4519455876       -1.6070906335
 C         -1.6112418524        2.2734181412        0.6926720614
 C         -1.5387986815        3.2525568337        1.6697265955
 C         -1.5789781444        2.8666311803        3.0001286898
 C         -1.6895987644        1.5295278282        3.3515221131
 C         -1.7613331261        0.5425710009        2.3775824124
 C         -1.7225421187        0.9234010012        1.0542968777
 C         -1.7606455925        0.0451566356       -0.1743999620
 C         -2.9574435110       -0.8705120609       -0.2259114930
 C         -4.2879517282       -0.5345652524       -0.2644048195
 C         -5.2326411105       -1.5569762815       -0.3054418485
 C         -4.8375800450       -2.8911365924       -0.3054791665
 C         -3.5027569536       -3.2401669379       -0.2673116987
 C         -2.5441891769       -2.2245854468       -0.2268032479
 C         -1.1196393007       -2.2714826964       -0.1930947746
 C         -0.2058984854       -3.3385912946       -0.2133010639
 C          1.1342126670       -3.0790014383       -0.2152913255
 C          1.6590662288       -1.7482540731       -0.1569186643
 C          3.0484264828       -1.4992891340       -0.0977799473
 C          3.9765483597       -2.4125570640       -0.7025872342
 C          5.2611696921       -2.0405236469       -0.9722220186
 C          5.7357486631       -0.7719477221       -0.6075747084
 C          4.9207443858        0.1084718740        0.1250486410
 C          5.4114627356        1.3415545125        0.5914067709
 C          4.6529667023        2.1421937274        1.4304958925
 C          3.4083447002        1.7109477516        1.8465409085
 C          2.8912879264        0.5016355935        1.3768706743
 C          3.5890664588       -0.2776697661        0.4587399445
 C          0.7139097996       -0.6747820988       -0.1796704851
 C         -0.6158184576       -0.9416883795       -0.1832412005
 H         -1.4486234741        4.0706062708       -3.6516780693
 H         -1.6246074829        1.7995443322       -4.5585708373
 H         -1.7801375620       -0.1528422179       -3.0441096848
 H         -1.4285577191        4.4540858447       -1.2120750173
 H         -1.4524355295        4.2952065240        1.4020181896
 H         -1.5240447712        3.6168674230        3.7755575978
 H         -1.7197092155        1.2526301440        4.3951364961
 H         -1.8464040359       -0.4994793254        2.6503390398
 H         -4.5962733157        0.5009444088       -0.2650594140
 H         -6.2835178464       -1.3117605698       -0.3379125392
 H         -5.5913432420       -3.6646035844       -0.3364769437
 H         -3.2012582122       -4.2769782819       -0.2678760667
 H         -0.5660846381       -4.3571180709       -0.2179642031
 H          1.8238320721       -3.9081078570       -0.1856826794
 H          3.6221662340       -3.3732761526       -1.0393128910
 H          5.9241808159       -2.7231941978       -1.4835767570
 H          6.7533073436       -0.4895618605       -0.8298785024
 H          6.3996174732        1.6548668068        0.2874867698
 H          5.0447610549        3.0889868647        1.7716695464
 H          2.8229732221        2.3051654152        2.5321618726
 H          1.9428547551        0.1578343191        1.7613490435
 H          1.0669098325        0.3422536757       -0.2587899377
  57
        -86.09823243
 C         -2.3155018531        4.0285301253       -1.7936630932
 C         -2.0394177726        2.9397646848       -2.6071674006
 C         -1.9048734799        1.6666065736       -2.0696079834
 C         -2.0532264062        1.5103919182       -0.7091999661
 C         -2.3342298761        2.6071253240        0.1183517986
 C         -2.4655449568        3.8746491539       -0.4247001312
 C         -2.4420089032        2.1339770070        1.4894203288
 C         -2.7037836906        2.8073193308        2.6712214344
 C         -2.7520631082        2.0820311436        3.8511036419
 C         -2.5435299276        0.7109035243        3.8538231114
 C         -2.2795170612        0.0293529421        2.6732392424
 C         -2.2308916873        0.7473654931        1.4986404574
 C         -1.9625496931        0.2409399487        0.1031652272
 C         -2.9295278569       -0.8237599182       -0.3532270434
 C         -4.2980342621       -0.7544819747       -0.4331500889
 C         -4.9952589556       -1.8671779341       -0.8975357084
 C         -4.3194696862       -3.0244790221       -1.2721986785
 C         -2.9438861729       -3.1048124843       -1.1948481521
 C         -2.2315479797       -1.9956366498       -0.7306449171
 C         -0.8355463147       -1.7804791920       -0.5422886156
 C          0.2819342238       -2.6107307345       -0.7351530053
 C          1.5300955936       -2.1249342045       -0.4738671700
 C          1.7544691129       -0.7951083886        0.0048349548
 C          3.0589125119       -0.3107967395        0.2560761581
 C          3.2815500598        0.6234935186        1.3222638940
 C          4.5362159607        0.8632158809        1.8020477704
 C          5.6585293024        0.2543270961        1.2213133334
 C          5.5182649398       -0.5549342070        0.0804672273
 C          6.6399736224       -1.0860753224       -0.5816616813
 C          6.5068915944       -1.7642387731       -1.7831863467
 C          5.2583644393       -1.8997495558       -2.3581321277
 C          4.1275686867       -1.4037088478       -1.7054119588
 C          4.2193537004       -0.7932036698       -0.4578849963
 C          0.6015751280        0.0113784583        0.2607411631
 C         -0.6340822115       -0.4663842978       -0.0344520813
 H         -2.4152035948        5.0097360936       -2.2344949348
 H         -1.9268995715        3.0844879158       -3.6713271903
 H         -1.6899304618        0.8179871914       -2.7025910481
 H         -2.6802205219        4.7259435033        0.2042160307
 H         -2.8676000699        3.8747319597        2.6745901229
 H         -2.9555451251        2.5907711939        4.7822201387
 H         -2.5858559224        0.1669643330        4.7860066497
 H         -2.1152907846       -1.0383511235        2.6745645144
 H         -4.8233779597        0.1442690211       -0.1439670326
 H         -6.0718592396       -1.8306891446       -0.9688885647
 H         -4.8848718226       -3.8733296175       -1.6288020147
 H         -2.4244150540       -4.0056718100       -1.4854476535
 H          0.1472706939       -3.6299485635       -1.0665321329
 H          2.3831104047       -2.7812354888       -0.5575299539
 H          2.4299059360        1.0621357198        1.8170518838
 H          4.6735082970        1.5216338128        2.6475316243
 H          6.6455011589        0.4553112244        1.6088544377
 H          7.6166552858       -0.9470829799       -0.1413375942
 H          7.3805450769       -2.1643471039       -2.2760798740
 H          5.1470696111       -2.3893399280       -3.3141242963
 H          3.1682211592       -1.4696317522       -2.1964466625
 H          0.7185988595        1.0250335057        0.6118780766
  57
        -86.09769058
 C         -1.8768958359        4.0078378788       -1.7081089276
 C         -1.6703265980        2.9017395360       -2.5190058054
 C         -1.7051596724        1.6177952494       -1.9919599943
 C         -1.9538018732        1.4689501788       -0.6454111590
 C         -2.1676878269        2.5826422961        0.1789986326
 C         -2.1289807372        3.8609091133       -0.3533840463
 C         -2.3975951268        2.1128056404        1.5361664001
 C         -2.6759403612        2.8003972538        2.7057914239
 C         -2.8658413373        2.0760235277        3.8718748353
 C         -2.7794106644        0.6917924057        3.8727964641
 C         -2.4963693894       -0.0040086123        2.7049296445
 C         -2.3067256472        0.7127415621        1.5437501848
 C         -1.9898258113        0.1940369077        0.1640930556
 C         -2.9551255951       -0.8445779893       -0.3470379124
 C         -4.3184487988       -0.7521925581       -0.4769345111
 C         -5.0154328259       -1.8458212242       -0.9854175707
 C         -4.3447979199       -3.0084905660       -1.3532610073
 C         -2.9747118809       -3.1129764764       -1.2254994060
 C         -2.2625383547       -2.0232711218       -0.7165825658
 C         -0.8705972102       -1.8339378897       -0.4785029216
 C          0.2463226600       -2.6635863082       -0.6802593957
 C          1.4943820029       -2.1812427341       -0.4113843984
 C          1.7166703048       -0.8605706663        0.0921117187
 C          3.0200977991       -0.3508173649        0.2978071570
 C          3.2689773939        0.5556280748        1.3806358242
 C          4.5404500978        0.8521556806        1.7778849849
 C          5.6481594541        0.3328989601        1.0921777441
 C          5.4686794166       -0.4517344287       -0.0605361990
 C          6.5661636368       -0.8895246005       -0.8237312550
 C          6.3826042011       -1.5447529065       -2.0315409713
 C          5.1038051044       -1.7526455881       -2.5097635536
 C          3.9987716672       -1.3471528055       -1.7583253086
 C          4.1489955819       -0.7576428635       -0.5060077856
 C          0.5648042434       -0.0678812251        0.3856620200
 C         -0.6689273382       -0.5365047230        0.0699305662
 H         -1.8387457988        4.9974425869       -2.1396193329
 H         -1.4750617360        3.0409977581       -3.5720513492
 H         -1.5379637680        0.7555344364       -2.6210520409
 H         -2.2889014479        4.7256962003        0.2731683053
 H         -2.7475942132        3.8779706812        2.7094944806
 H         -3.0873177683        2.5955701411        4.7927146184
 H         -2.9345165947        0.1484596381        4.7932750125
 H         -2.4282509610       -1.0822583060        2.7055511655
 H         -4.8406177530        0.1500072715       -0.1927797661
 H         -6.0878753257       -1.7905972107       -1.0964812528
 H         -4.9099838386       -3.8419137986       -1.7448937771
 H         -2.4590818289       -4.0177517881       -1.5108050134
 H          0.1118424794       -3.6754025612       -1.0340055835
 H          2.3507562773       -2.8310804246       -0.5141584759
 H          2.4316294676        0.9258883574        1.9503877693
 H          4.7031588626        1.4879379026        2.6359608188
 H          6.6485324855        0.5836849274        1.4100030391
 H          7.5635976838       -0.6962321501       -0.4568074970
 H          7.2386005874       -1.8724433468       -2.6027804991
 H          4.9487419909       -2.2274586664       -3.4670723885
 H          3.0104591105       -1.4637089140       -2.1765701459
 H          0.6821823322        0.9362826179        0.7627642827
  57
        -86.09675761
 C         -0.9126988682        3.7647092403       -1.9354939527
 C         -0.7459588739        2.5995675403       -2.6689060140
 C         -1.0052981224        1.3588804789       -2.1018978000
 C         -1.4303572642        1.3106618779       -0.7921377870
 C         -1.5962252652        2.4866973219       -0.0448117439
 C         -1.3407882591        3.7211272464       -0.6182421863
 C         -2.0209762919        2.1243542947        1.2981645699
 C         -2.3478974969        2.9021088624        2.3969961354
 C         -2.7348376814        2.2685224954        3.5671252849
 C         -2.7907668354        0.8848180144        3.6434844689
 C         -2.4651184761        0.0988821949        2.5463422023
 C         -2.0831593231        0.7265769428        1.3813071518
 C         -1.7258339362        0.0993452393        0.0505696613
 C         -2.8488973837       -0.7965830466       -0.4140919343
 C         -4.1268473718       -0.4500845140       -0.7739734625
 C         -5.0170638574       -1.4622009628       -1.1263513641
 C         -4.6237323420       -2.7970543276       -1.0998527375
 C         -3.3431817957       -3.1572534614       -0.7329001854
 C         -2.4349950767       -2.1514392968       -0.3897283536
 C         -1.0560731682       -2.2048830940       -0.0375744845
 C         -0.1600032907       -3.2761022804        0.1293353122
 C          1.1602942412       -3.0180980005        0.3617537906
 C          1.6820537939       -1.6868542651        0.3525134114
 C          3.0767254434       -1.4466191832        0.3295954430
 C          3.9713427120       -2.3011523658        1.0509067892
 C          5.2817681146       -1.9631753077        1.2319546596
 C          5.8128979665       -0.8047095078        0.6472944355
 C          5.0161806339        0.0071568174       -0.1795927553
 C          5.5628038570        1.1067711885       -0.8660632658
 C          4.8094394561        1.8280186439       -1.7793535188
 C          3.5040835139        1.4560319641       -2.0345454090
 C          2.9344954887        0.3802572258       -1.3516239872
 C          3.6439219825       -0.3236633376       -0.3810694120
 C          0.7417766368       -0.6105517583        0.3151355049
 C         -0.5768056291       -0.8755652942        0.1428879355
 H         -0.7028581612        4.7186955845       -2.3969717119
 H         -0.4088294183        2.6582859776       -3.6935029926
 H         -0.8746363039        0.4510783396       -2.6734621900
 H         -1.4646581710        4.6307309690       -0.0494152213
 H         -2.3088270722        3.9799652254        2.3427208630
 H         -2.9983407812        2.8593858718        4.4322908261
 H         -3.0948896241        0.4130228536        4.5662653912
 H         -2.5139939632       -0.9788918455        2.6034405055
 H         -4.4356707761        0.5852490774       -0.7882970670
 H         -6.0244561876       -1.2083852950       -1.4200362409
 H         -5.3357187149       -3.5619981774       -1.3742799777
 H         -3.0416570671       -4.1939725611       -0.7179378953
 H         -0.5155040868       -4.2933973566        0.0548225675
 H          1.8520130684       -3.8422950537        0.4446173471
 H          3.5703182418       -3.1733780751        1.5429536596
 H          5.9227561614       -2.5891859127        1.8355878639
 H          6.8551599206       -0.5590568803        0.7820629829
 H          6.5924349214        1.3752875142       -0.6796451875
 H          5.2497288968        2.6659868380       -2.2993796123
 H          2.9137699485        1.9906574870       -2.7636822625
 H          1.9330168059        0.0734055003       -1.6112360271
 H          1.0917194828        0.3999354627        0.4670354481
