  55
        -80.47014078
 C          3.0659502896       -3.4408046738        1.3472511213
 C          2.1672901117       -3.6297259789        0.1172396291
 C          3.0083156362       -3.5188028305       -1.1623278523
 C          1.5692565460       -5.0374420213        0.1746072700
 C          1.1041464117       -2.5422867009        0.1060904566
 C         -0.2539188502       -2.8269031526        0.1495197565
 C         -1.1810844333       -1.7926601963        0.1223525864
 C         -0.7954661764       -0.4471092066        0.0677392945
 C          0.5852118652       -0.1714448095        0.0377065379
 C          1.5090258775       -1.2145872211        0.0478130072
 N          1.0033021595        1.1414492326       -0.0091478754
 C          2.4056224763        1.3742254952       -0.1321428026
 C          2.9811506306        1.4546917878       -1.3932388179
 C          4.3446014167        1.6587791187       -1.5154024315
 C          5.1335095701        1.7809337425       -0.3836387386
 C          4.5588651710        1.6996848160        0.8744202409
 C          3.1965486759        1.4957831898        1.0038715660
 C          0.1576579567        2.2295912493        0.1027789930
 C          0.7241794472        3.5127814099        0.1456926532
 C         -0.0622657953        4.6275512926        0.3146373269
 C         -1.4376606239        4.4936982452        0.4612019772
 C         -2.0021601355        3.2408510891        0.3920321210
 C         -1.2482263085        2.0786050358        0.1825641805
 B         -1.8357416083        0.6589680346        0.0479146818
 C         -3.2908982226        0.1434192550       -0.1067880014
 C         -4.4345574558        0.9121405332       -0.3617754681
 C         -5.6934667138        0.3606885668       -0.4533307336
 C         -5.8632897443       -1.0093137870       -0.2918952371
 C         -4.7653426312       -1.8098093638       -0.0771003713
 C         -3.4886355002       -1.2463231371       -0.0036110302
 O         -2.4883811743       -2.1537047959        0.1604511265
 H          3.8262254166       -4.2182420808        1.3775821041
 H          2.4729390632       -3.5011777826        2.2573606296
 H          3.5655791392       -2.4761130479        1.3289252340
 H          2.3719972512       -3.6197599560       -2.0388130673
 H          3.5189429947       -2.5615084435       -1.2197990041
 H          3.7577500779       -4.3070415222       -1.1868357583
 H          2.3717867171       -5.7722669355        0.1788659905
 H          0.9411415630       -5.2296031139       -0.6915785654
 H          0.9820891397       -5.1750193464        1.0790256664
 H         -0.6288528803       -3.8342134999        0.1960237931
 H          2.5610397789       -0.9831648991        0.0181028924
 H          2.3551112285        1.3548548519       -2.2674752571
 H          4.7911934583        1.7206896733       -2.4963562224
 H          6.1969691037        1.9387269941       -0.4815095038
 H          5.1729567359        1.7936434939        1.7576371205
 H          2.7360965086        1.4282396825        1.9786397388
 H          1.7934315633        3.6322478194        0.0559341091
 H          0.3963984861        5.6051927339        0.3476283745
 H         -2.0537311136        5.3656276122        0.6241033419
 H         -3.0676797220        3.1437324020        0.5247187814
 H         -4.3216035203        1.9738800305       -0.5142384112
 H         -6.5488839006        0.9900712795       -0.6508566571
 H         -6.8487340701       -1.4472565297       -0.3504630336
 H         -4.8605518192       -2.8802000265        0.0248616262
  55
        -80.47005994
 C          1.5720458174       -5.0315545438        0.3347640342
 C          2.1699060495       -3.6260144154        0.2371343911
 C          3.0498845825       -3.3935019027        1.4735265852
 C          3.0301889601       -3.5589720280       -1.0323642462
 C          1.1063814265       -2.5403424940        0.1784330931
 C         -0.2519350561       -2.8245170158        0.2237010173
 C         -1.1793314764       -1.7914123433        0.1716150522
 C         -0.7918976523       -0.4477635361        0.0938580858
 C          0.5881666912       -0.1724183404        0.0496031418
 C          1.5119495832       -1.2148736970        0.0820415412
 N          1.0042401888        1.1399165421       -0.0299537710
 C          2.3970967775        1.3707140061       -0.2348003969
 C          3.2548455333        1.5175355733        0.8485349184
 C          4.6064577694        1.7193776161        0.6322001188
 C          5.1040618087        1.7734876461       -0.6596698246
 C          4.2486946913        1.6258013322       -1.7387426366
 C          2.8956515515        1.4237051041       -1.5296359412
 C          0.1616533749        2.2284997885        0.1010446187
 C          0.7277431786        3.5118301290        0.1382378497
 C         -0.0558641838        4.6238173450        0.3373822002
 C         -1.4271923583        4.4875543525        0.5173759230
 C         -1.9930493588        3.2353088390        0.4473763000
 C         -1.2421286801        2.0769060300        0.2090123901
 B         -1.8306355136        0.6588583793        0.0716217805
 C         -3.2850447842        0.1453681731       -0.0857356845
 C         -4.4231306678        0.9159082021       -0.3583027513
 C         -5.6821729044        0.3662693590       -0.4589629618
 C         -5.8561041416       -1.0021966569       -0.2884253005
 C         -4.7627316036       -1.8040162127       -0.0549676154
 C         -3.4855943147       -1.2430954252        0.0274193639
 O         -2.4876604427       -2.1497047687        0.2117285674
 H          2.3750188194       -5.7649287059        0.3730765918
 H          0.9541472897       -5.2533876571       -0.5317132625
 H          0.9746079300       -5.1391421045        1.2365654424
 H          2.4415330459       -3.4128298534        2.3751977967
 H          3.8039050134       -4.1741383880        1.5482958029
 H          3.5565309112       -2.4337178365        1.4239907048
 H          3.7851124261       -4.3422226737       -1.0143018528
 H          3.5352903793       -2.6009863551       -1.1192969952
 H          2.4082444428       -3.6983818111       -1.9138945078
 H         -0.6262524031       -3.8307553536        0.2927204700
 H          2.5639869567       -0.9840801431        0.0450499859
 H          2.8544794900        1.4718191453        1.8506654720
 H          5.2727040632        1.8329122778        1.4742359443
 H          6.1593548653        1.9297654722       -0.8249561213
 H          4.6348307257        1.6669096847       -2.7461833495
 H          2.2179605246        1.3045011108       -2.3620018514
 H          1.7943931447        3.6332013091        0.0231336221
 H          0.4025193960        5.6016830944        0.3684977095
 H         -2.0389791729        5.3574210357        0.7056591251
 H         -3.0555728323        3.1340470384        0.6022823710
 H         -4.3037649705        1.9763681069       -0.5161401278
 H         -6.5343603295        0.9954458019       -0.6706248586
 H         -6.8416767753       -1.4386236281       -0.3554696103
 H         -4.8624253541       -2.8732799641        0.0541892636
  55
        -80.46998420
 C          3.5936387008       -3.1877165812       -0.1290684756
 C          2.1388914410       -3.6621515764       -0.1847382232
 C          1.9421115486       -4.4487985385       -1.4878750673
 C          1.8892845127       -4.5812098591        1.0189847254
 C          1.1402613002       -2.5160029850       -0.1453279158
 C         -0.2202848351       -2.8071346476       -0.1935412133
 C         -1.1554820582       -1.7854120822       -0.1507585213
 C         -0.7766678345       -0.4373334740       -0.0734772248
 C          0.6009771143       -0.1549385681       -0.0352571593
 C          1.5375015147       -1.1912915445       -0.0626323110
 N          1.0110967716        1.1593307763        0.0351161415
 C          2.4106861805        1.4000848192        0.1751443968
 C          3.2112554990        1.5506935542       -0.9505858294
 C          4.5707436271        1.7610712604       -0.8040582182
 C          5.1330949862        1.8205518924        0.4607370162
 C          4.3344554364        1.6711546292        1.5821756717
 C          2.9736865232        1.4603300544        1.4429583287
 C          0.1595207305        2.2440260476       -0.0662340752
 C          0.7180891094        3.5313542155       -0.0874554288
 C         -0.0741612156        4.6431378911       -0.2484639049
 C         -1.4475685184        4.5026467206       -0.4081665895
 C         -2.0047519264        3.2457745380       -0.3581802247
 C         -1.2448668320        2.0857909178       -0.1571666277
 B         -1.8241136985        0.6613726415       -0.0428575564
 C         -3.2772014507        0.1355072542        0.0973678503
 C         -4.4262125856        0.8946521776        0.3562880928
 C         -5.6828880225        0.3354786520        0.4324442509
 C         -5.8444016364       -1.0328897768        0.2509401838
 C         -4.7407856238       -1.8246872712        0.0322040978
 C         -3.4668214027       -1.2536399448       -0.0260884786
 O         -2.4608866135       -2.1534381002       -0.1981298304
 H          4.2555330151       -4.0508786706       -0.1571822338
 H          3.7932357358       -2.6409015198        0.7894856768
 H          3.8322527145       -2.5534587703       -0.9795194824
 H          0.9425446716       -4.8688680748       -1.5480566447
 H          2.0906842807       -3.7966826900       -2.3459954608
 H          2.6598900251       -5.2644038230       -1.5447170991
 H          2.5966455291       -5.4077633823        1.0120197206
 H          0.8841220119       -4.9916486246        1.0003907071
 H          2.0144434034       -4.0264608316        1.9464356732
 H         -0.5799931268       -3.8208463545       -0.2570833808
 H          2.5838279673       -0.9446536536       -0.0273244902
 H          2.7602049276        1.5012134226       -1.9306854918
 H          5.1923756705        1.8776640460       -1.6790624452
 H          6.1945057197        1.9829374593        0.5717460275
 H          4.7713250429        1.7170724940        2.5682836779
 H          2.3399606858        1.3400722918        2.3089630820
 H          1.7857958200        3.6565112681        0.0123466940
 H          0.3784305098        5.6240183030       -0.2657127929
 H         -2.0677264393        5.3727144312       -0.5656416666
 H         -3.0688282387        3.1435051228       -0.4991592756
 H         -4.3196652185        1.9548595150        0.5232721638
 H         -6.5429088885        0.9577061822        0.6326271960
 H         -6.8277410975       -1.4769082956        0.2974206202
 H         -4.8298972188       -2.8940902573       -0.0846942932
  55
        -80.46985950
 C          1.8684529612       -4.4850389281       -1.5050203014
 C          2.1288200001       -3.6714224021       -0.2296270355
 C          1.9396909428       -4.5650470605        1.0037044246
 C          3.5846598036       -3.1975913591       -0.2580135299
 C          1.1337373811       -2.5231908193       -0.1638736644
 C         -0.2281926444       -2.8128545765       -0.1612986587
 C         -1.1602653777       -1.7888034219       -0.1061810436
 C         -0.7755281949       -0.4409254597       -0.0707934203
 C          0.6026691927       -0.1601939081       -0.0707359804
 C          1.5362570245       -1.1984864935       -0.1065512457
 N          1.0149035039        1.1549325679       -0.0302879333
 C          2.4086387826        1.3994192523        0.1529580171
 C          3.2569682994        1.5137280139       -0.9416016634
 C          4.6086927216        1.7325210512       -0.7431152084
 C          5.1156807450        1.8368075873        0.5419940476
 C          4.2695261781        1.7226075745        1.6323130057
 C          2.9166135702        1.5031172971        1.4410514778
 C          0.1643786070        2.2368428612       -0.1667283818
 C          0.7237017520        3.5208303836       -0.2535821684
 C         -0.0699296137        4.6241405454       -0.4606874191
 C         -1.4451203512        4.4782658743       -0.5997840800
 C         -2.0033985171        3.2262827208       -0.4820801263
 C         -1.2410327548        2.0773639213       -0.2338025270
 B         -1.8186453137        0.6611544822       -0.0448716427
 C         -3.2655791870        0.1461996184        0.1680567014
 C         -4.3978064395        0.9195206764        0.4561209784
 C         -5.6511324067        0.3684212215        0.6083214861
 C         -5.8244619638       -1.0042686251        0.4765645971
 C         -4.7353997148       -1.8079811856        0.2290534884
 C         -3.4636849115       -1.2451907341        0.0941400066
 O         -2.4680864620       -2.1526784552       -0.0994100931
 H          2.5829009517       -5.3020071919       -1.5804541905
 H          1.9741921612       -3.8508544822       -2.3825832790
 H          0.8677393829       -4.9062066576       -1.5078636751
 H          0.9336403662       -4.9716424954        1.0445219696
 H          2.6436328384       -5.3941222608        0.9773819485
 H          2.1134840984       -3.9921884289        1.9120871333
 H          4.2439939202       -4.0613977084       -0.3138207030
 H          3.8350658106       -2.6418247921        0.6425167341
 H          3.7755755484       -2.5722431001       -1.1269336761
 H         -0.5904803520       -3.8271171044       -0.1950295204
 H          2.5834687939       -0.9530728285       -0.1017224614
 H          2.8493796501        1.4301665600       -1.9383399747
 H          5.2677468416        1.8212021084       -1.5937820703
 H          6.1708427603        2.0072320442        0.6934089986
 H          4.6627440129        1.8034866853        2.6346073348
 H          2.2458457782        1.4102423047        2.2824248007
 H          1.7926081460        3.6491702238       -0.1721788442
 H          0.3832138134        5.6023871469       -0.5313888392
 H         -2.0654995199        5.3407963586       -0.7936450966
 H         -3.0692156926        3.1167731051       -0.6056343699
 H         -4.2777550073        1.9838350900        0.5847414089
 H         -6.4991314359        0.9998643414        0.8298056309
 H         -6.8057629818       -1.4422405070        0.5841748283
 H         -4.8342916609       -2.8799326474        0.1492743536
  55
        -80.46975677
 C          3.1182411677       -3.5317323974        0.9428364898
 C          2.1542243524       -3.6454691212       -0.2459399861
 C          2.9274129753       -3.4623849043       -1.5599671949
 C          1.5518579474       -5.0525249174       -0.2346512182
 C          1.0970165025       -2.5555204506       -0.1579551146
 C         -0.2628205132       -2.8347840831       -0.1736519869
 C         -1.1842345549       -1.7969988908       -0.1132344048
 C         -0.7902677397       -0.4535511758       -0.0682625809
 C          0.5918788270       -0.1822890404       -0.0659381698
 C          1.5093996769       -1.2304923068       -0.0887541876
 N          1.0122454502        1.1314361226       -0.0290578756
 C          2.4034589098        1.3781112029        0.1617919622
 C          3.2923930243        1.2850481999       -0.9023995721
 C          4.6415003139        1.5102556044       -0.6931608773
 C          5.1054518832        1.8335257765        0.5716040993
 C          4.2187406724        1.9301459908        1.6309874485
 C          2.8691692850        1.6997502726        1.4300072148
 C          0.1664647546        2.2173734752       -0.1703283264
 C          0.7365731587        3.4919843206       -0.3088132939
 C         -0.0513680440        4.6009415563       -0.5076021491
 C         -1.4323072121        4.4690381550       -0.5906410419
 C         -1.9988234122        3.2237858054       -0.4435077804
 C         -1.2410300325        2.0695741095       -0.2064443476
 B         -1.8260715676        0.6554479724       -0.0220230491
 C         -3.2759155745        0.1479604677        0.1877024719
 C         -4.4034330923        0.9239921646        0.4874250397
 C         -5.6611091689        0.3793967929        0.6259269251
 C         -5.8445121927       -0.9892394497        0.4670837045
 C         -4.7606279082       -1.7962732012        0.2085688554
 C         -3.4841634195       -1.2403948324        0.0891866416
 O         -2.4943677537       -2.1513407985       -0.1148921816
 H          3.8543435456       -4.3318121102        0.9025707561
 H          2.5707202053       -3.6128257453        1.8791962397
 H          3.6491647967       -2.5841046510        0.9387205734
 H          3.4183185330       -2.4935399447       -1.5942366376
 H          3.6858710057       -4.2357227548       -1.6610230605
 H          2.2476453215       -3.5312437152       -2.4066013624
 H          2.3511702652       -5.7896600058       -0.2795691400
 H          0.9041227758       -5.2076744750       -1.0937587628
 H          0.9839834988       -5.2242870660        0.6764715183
 H         -0.6425269026       -3.8402709882       -0.2209241859
 H          2.5628389776       -1.0064587447       -0.0675137944
 H          2.9183456422        1.0352418773       -1.8845127883
 H          5.3316525975        1.4353898449       -1.5202488422
 H          6.1583049072        2.0108278399        0.7310078914
 H          4.5778134998        2.1824963721        2.6174120934
 H          2.1673206626        1.7702052798        2.2478363108
 H          1.8096707988        3.6075926801       -0.2786409524
 H          0.4104645653        5.5714699690       -0.6171431019
 H         -2.0501288727        5.3358278525       -0.7733254325
 H         -3.0685647694        3.1242578429       -0.5371449745
 H         -4.2763403814        1.9847585766        0.6368060204
 H         -6.5049905620        1.0125563290        0.8579134875
 H         -6.8294460905       -1.4216822954        0.5627992579
 H         -4.8669471898       -2.8657422588        0.1080311148
  55
        -80.46957353
 C          1.5680764341       -5.0487372984       -0.0886481728
 C          2.1572022087       -3.6445214080       -0.2448228418
 C          3.2202595937       -3.4546142099        0.8458799531
 C          2.8134591411       -3.5456629676       -1.6293099123
 C          1.1035093162       -2.5525354170       -0.1383364445
 C         -0.2546018131       -2.8356584498       -0.0769717467
 C         -1.1784724396       -1.7997022986       -0.0208980167
 C         -0.7880736276       -0.4548838242       -0.0396416874
 C          0.5918561982       -0.1803661824       -0.0912235036
 C          1.5128622183       -1.2245824314       -0.1351161263
 N          1.0086956039        1.1348258496       -0.0912614644
 C          2.3983979641        1.3837928900        0.1119267033
 C          3.2834179897        1.4056284594       -0.9590074419
 C          4.6301358701        1.6296411095       -0.7328661132
 C          5.0954887141        1.8330282357        0.5561139497
 C          4.2126979917        1.8122940765        1.6228470854
 C          2.8651788817        1.5861408411        1.4039550178
 C          0.1591307450        2.2132539340       -0.2578318359
 C          0.7218530151        3.4882341416       -0.4195309487
 C         -0.0716993197        4.5835030812       -0.6665111715
 C         -1.4499672265        4.4374717699       -0.7705259009
 C         -2.0108919390        3.1956806805       -0.5792418007
 C         -1.2476850996        2.0571552757       -0.2900349240
 B         -1.8253486044        0.6530252369       -0.0257181795
 C         -3.2681196369        0.1544049353        0.2416575688
 C         -4.3903919409        0.9446084773        0.5227573913
 C         -5.6430075030        0.4064789098        0.7198767913
 C         -5.8247343991       -0.9695398435        0.6456334683
 C         -4.7446424640       -1.7882500877        0.4081065070
 C         -3.4735842331       -1.2378414902        0.2241440136
 O         -2.4865103564       -2.1564746597        0.0410259853
 H          2.3668572665       -5.7857713508       -0.1413754858
 H          0.8593355867       -5.2673544523       -0.8829928138
 H          1.0709842579       -5.1552478880        0.8723765124
 H          2.7548856751       -3.4630517298        1.8288653718
 H          3.9473702196       -4.2625832601        0.8007629057
 H          3.7533029173       -2.5156633258        0.7279595195
 H          3.5817701321       -4.3085228079       -1.7362391702
 H          3.2722548060       -2.5714074018       -1.7758775596
 H          2.0684832275       -3.6929100615       -2.4083851679
 H         -0.6309689927       -3.8434355333       -0.0662926445
 H          2.5640864701       -0.9930819648       -0.1830772294
 H          2.9087303931        1.2457050477       -1.9594422256
 H          5.3178176315        1.6445944104       -1.5651991208
 H          6.1466812798        2.0077966359        0.7288612997
 H          4.5730786363        1.9710378112        2.6281434376
 H          2.1662383684        1.5658131030        2.2270296030
 H          1.7931469087        3.6137141626       -0.3691596601
 H          0.3836333357        5.5545551116       -0.7969577265
 H         -2.0706602045        5.2920724016       -0.9959296403
 H         -3.0794364712        3.0846142669       -0.6757056068
 H         -4.2620428959        2.0124020418        0.6078503596
 H         -6.4838458811        1.0504549087        0.9324023478
 H         -6.8058062051       -1.3977668531        0.7886775356
 H         -4.8505087452       -2.8618567817        0.3715994919
  55
        -80.46946812
 C          3.5948672304       -3.1811716148       -0.0263714592
 C          2.1408079438       -3.6604510914       -0.0478923115
 C          1.9321112629       -4.4983919080       -1.3166380020
 C          1.9063944422       -4.5316370075        1.1937376027
 C          1.1405134244       -2.5154395480       -0.0414452705
 C         -0.2196996784       -2.8065069093       -0.0625942846
 C         -1.1549260796       -1.7836156163       -0.0540600100
 C         -0.7850236578       -0.4303377073       -0.0190262948
 C          0.5950861521       -0.1521142492        0.0019149417
 C          1.5331181275       -1.1878574864       -0.0126303803
 N          1.0136335400        1.1593363033        0.0360662984
 C          2.4210614671        1.3963202885        0.0576017268
 C          3.1125644033        1.5739801498       -1.1340119199
 C          4.4795067177        1.7873003069       -1.1104092548
 C          5.1573911770        1.8207468613        0.0970980898
 C          4.4674208994        1.6420065301        1.2848112970
 C          3.1001459255        1.4298953007        1.2688509098
 C          0.1620700737        2.2475326699        0.0391911370
 C          0.7343149089        3.5291945755        0.0769379584
 C         -0.0490743984        4.6576656073        0.0715172679
 C         -1.4320273391        4.5374612109        0.0250658732
 C         -1.9976061680        3.2839739901       -0.0052065321
 C         -1.2470968456        2.0998636669        0.0072220934
 B         -1.8371192430        0.6694491623       -0.0084748676
 C         -3.2999968215        0.1334892802       -0.0159791159
 C         -4.4839445592        0.8842576635        0.0171861584
 C         -5.7369797704        0.3127689372       -0.0055202200
 C         -5.8690156706       -1.0691044815       -0.0610574053
 C         -4.7393467984       -1.8520264129       -0.0860613350
 C         -3.4714243329       -1.2635350668       -0.0613145298
 O         -2.4548416272       -2.1647531647       -0.0831838240
 H          4.2588797035       -4.0431785382       -0.0313282198
 H          3.8036346334       -2.6013082627        0.8695965168
 H          3.8217009731       -2.5771364691       -0.9017129942
 H          2.0782833163       -3.8820113088       -2.2008631897
 H          2.6455255930       -5.3191466588       -1.3453663641
 H          0.9303710728       -4.9151964063       -1.3534093348
 H          2.6181310870       -5.3541354495        1.2141229070
 H          0.9031652088       -4.9473811732        1.1997560842
 H          2.0356165861       -3.9395191897        2.0971733796
 H         -0.5822169413       -3.8209727921       -0.0865576043
 H          2.5788848215       -0.9378410864       -0.0006987199
 H          2.5719738260        1.5449247035       -2.0685180649
 H          5.0160384788        1.9267637179       -2.0369077159
 H          6.2240335958        1.9859288935        0.1124601154
 H          4.9947303783        1.6671279415        2.2266254358
 H          2.5502558817        1.2873925489        2.1873564890
 H          1.8077627319        3.6370117934        0.1112015284
 H          0.4146607161        5.6328061744        0.1018570709
 H         -2.0548433903        5.4197292556        0.0150125265
 H         -3.0710214841        3.2156468602       -0.0442756032
 H         -4.4220344798        1.9579742765        0.0678940292
 H         -6.6173316321        0.9382734186        0.0196036272
 H         -6.8473569748       -1.5254372280       -0.0828328308
 H         -4.8009045529       -2.9289058360       -0.1242852071
  55
        -80.46912090
 C          3.5790732285       -3.2158808396       -0.4319223240
 C          2.1212566684       -3.6831383548       -0.4007486212
 C          1.8314461625       -4.4228757652       -1.7147738076
 C          1.9507374999       -4.6436405828        0.7836057143
 C          1.1336671714       -2.5346482329       -0.2625056779
 C         -0.2292013967       -2.8197650873       -0.2490255197
 C         -1.1559450229       -1.7939615371       -0.1535526671
 C         -0.7630482562       -0.4490624720       -0.1057130623
 C          0.6161152480       -0.1723834394       -0.1074316072
 C          1.5438629567       -1.2142156946       -0.1641857353
 N          1.0276595010        1.1437383000       -0.0446225685
 C          2.3937731398        1.4037859157        0.2698292632
 C          3.3793127628        1.3609330182       -0.7086262573
 C          4.6982675546        1.6032154446       -0.3663559705
 C          5.0360590443        1.8933959588        0.9454064175
 C          4.0528494291        1.9405176127        1.9195546686
 C          2.7332896206        1.6934263801        1.5851535679
 C          0.1792582228        2.2230855840       -0.2201857077
 C          0.7441420887        3.4986558890       -0.3677353392
 C         -0.0463175208        4.5946642196       -0.6221399362
 C         -1.4230319086        4.4493968398       -0.7472923334
 C         -1.9864716017        3.2056605279       -0.5767961010
 C         -1.2257674578        2.0662625817       -0.2852485011
 B         -1.8023849583        0.6554347657       -0.0647321986
 C         -3.2445981720        0.1483424410        0.1828388981
 C         -4.3613727709        0.9294639308        0.5065085330
 C         -5.6117851830        0.3846443387        0.6997040149
 C         -5.7956485924       -0.9873856437        0.5739611586
 C         -4.7205959293       -1.7975116248        0.2875404371
 C         -3.4511860322       -1.2416378665        0.1104238845
 O         -2.4657851026       -2.1513052679       -0.1234785233
 H          4.2319282021       -4.0792162324       -0.5434176458
 H          3.8493848938       -2.7075509974        0.4906281347
 H          3.7577450070       -2.5489087702       -1.2719657863
 H          0.8291835056       -4.8400827085       -1.7202799119
 H          1.9207651413       -3.7401354571       -2.5569346013
 H          2.5407606760       -5.2360974319       -1.8521234589
 H          2.6459697820       -5.4755264312        0.6937358568
 H          0.9424921501       -5.0444229254        0.8244704844
 H          2.1503223812       -4.1256644020        1.7190883716
 H         -0.5956606605       -3.8316059883       -0.3036057496
 H          2.5925336139       -0.9762953000       -0.1474709051
 H          3.1045145065        1.1400583494       -1.7296798801
 H          5.4639457034        1.5690333982       -1.1269866897
 H          6.0656091028        2.0843528784        1.2079794419
 H          4.3127256428        2.1683401459        2.9424603302
 H          1.9562955583        1.7280135801        2.3346555269
 H          1.8149664707        3.6231066490       -0.3052854604
 H          0.4109341706        5.5659163508       -0.7440736181
 H         -2.0399448792        5.3055474961       -0.9771959804
 H         -3.0529666307        3.0924294750       -0.6946530978
 H         -4.2283381464        1.9932241404        0.6297904611
 H         -6.4490507581        1.0197138057        0.9497934068
 H         -6.7750058656       -1.4202506187        0.7149237778
 H         -4.8291689158       -2.8686038787        0.2090177273
  55
        -80.46885382
 C          1.9780872406       -4.6127297547       -0.8326187180
 C          2.1153587282       -3.6935643919        0.3882919078
 C          1.7917504313       -4.4784631750        1.6677155282
 C          3.5710002252       -3.2265841245        0.4758943585
 C          1.1307665536       -2.5414628389        0.2588144901
 C         -0.2318750164       -2.8248073606        0.2148967292
 C         -1.1561590710       -1.7963143003        0.1242271520
 C         -0.7610798178       -0.4513484196        0.1111628322
 C          0.6180454690       -0.1764300493        0.1383726417
 C          1.5438354740       -1.2199174786        0.1916710639
 N          1.0312886409        1.1405094949        0.1033272138
 C          2.3904695444        1.4073833720       -0.2341374909
 C          2.6978999870        1.7199389047       -1.5522355711
 C          4.0085663227        1.9728434635       -1.9151048414
 C          5.0152786443        1.9092434367       -0.9663132883
 C          4.7094802609        1.5978840083        0.3483210471
 C          3.3993534909        1.3492328241        0.7191213302
 C          0.1813042349        2.2164030174        0.2925789763
 C          0.7463636453        3.4869014306        0.4770117168
 C         -0.0459253863        4.5781268305        0.7459731673
 C         -1.4245229866        4.4323754784        0.8486391778
 C         -1.9876806349        3.1937940883        0.6427767688
 C         -1.2244332673        2.0601438246        0.3361389566
 B         -1.7982020578        0.6553387684        0.0743522364
 C         -3.2345804635        0.1559720191       -0.2169025734
 C         -4.3414192508        0.9461558011       -0.5522288736
 C         -5.5867807133        0.4076227745       -0.7906212263
 C         -5.7750760136       -0.9665767983       -0.6998170196
 C         -4.7090937790       -1.7846253748       -0.4019303605
 C         -3.4442016421       -1.2349491141       -0.1793536410
 O         -2.4657803942       -2.1506952512        0.0609920638
 H          2.6738642182       -5.4454502746       -0.7544467983
 H          2.1989695948       -4.0613588752       -1.7440429652
 H          0.9720614453       -5.0137820435       -0.9120346919
 H          1.8583637678       -3.8253705873        2.5352176349
 H          0.7904227249       -4.8965045335        1.6328797732
 H          2.4984447884       -5.2957086255        1.7951474720
 H          4.2212874053       -4.0921709076        0.5850392431
 H          3.7225008673       -2.5814836276        1.3380814981
 H          3.8692058720       -2.6944941060       -0.4243700800
 H         -0.5996265107       -3.8373229265        0.2406718027
 H          2.5927030885       -0.9824779575        0.1983893679
 H          1.9026686387        1.7652678117       -2.2818219091
 H          4.2431758742        2.2164955440       -2.9404474347
 H          6.0382142503        2.1038660989       -1.2510427688
 H          5.4938916859        1.5500328549        1.0888546311
 H          3.1503753702        1.1110358617        1.7429167571
 H          1.8183607041        3.6096368418        0.4322988121
 H          0.4108994373        5.5454199860        0.8975117059
 H         -2.0432431570        5.2843975150        1.0888443146
 H         -3.0560383943        3.0798045938        0.7425863194
 H         -4.2035847634        2.0122354576       -0.6476217353
 H         -6.4163539799        1.0492003084       -1.0495932986
 H         -6.7502624132       -1.3949477781       -0.8785066394
 H         -4.8211126364       -2.8570056587       -0.3503243792
  55
        -80.46882277
 C          3.1669453097       -3.5471057950        0.7479885046
 C          2.1473149151       -3.6588799900       -0.3936281317
 C          2.8582372677       -3.4814289694       -1.7431214034
 C          1.5417092783       -5.0640966450       -0.3524347907
 C          1.0991034670       -2.5648859716       -0.2573497250
 C         -0.2603869801       -2.8423429966       -0.2023181342
 C         -1.1775857497       -1.8026865343       -0.1147356717
 C         -0.7777608954       -0.4608342407       -0.1160131398
 C          0.6036156203       -0.1914100369       -0.1566127300
 C          1.5179700334       -1.2401525406       -0.2115565907
 N          1.0224321576        1.1244049228       -0.1282879691
 C          2.3809453449        1.3841491552        0.2163181033
 C          3.3961386407        1.3157213153       -0.7294445777
 C          4.7057423857        1.5538267998       -0.3491643877
 C          5.0047039025        1.8640362234        0.9673059569
 C          3.9915815863        1.9380784010        1.9085899657
 C          2.6816007886        1.6964187099        1.5361539688
 C          0.1756343172        2.2034151583       -0.3131621536
 C          0.7451044643        3.4716173746       -0.4987495306
 C         -0.0439088922        4.5663994462       -0.7633083926
 C         -1.4232749410        4.4259542379       -0.8617971465
 C         -1.9905829558        3.1892429560       -0.6553302167
 C         -1.2308766628        2.0526625103       -0.3512547653
 B         -1.8092145035        0.6514075462       -0.0793546413
 C         -3.2443894755        0.1606150089        0.2304870489
 C         -4.3440563635        0.9581974200        0.5722004438
 C         -5.5878021983        0.4265093561        0.8326244927
 C         -5.7818362321       -0.9480048319        0.7590536498
 C         -4.7232149014       -1.7728278294        0.4540044857
 C         -3.4596618676       -1.2298173933        0.2081671325
 O         -2.4876906386       -2.1509688432       -0.0368604622
 H          3.8993281920       -4.3480934114        0.6729398539
 H          2.6641006778       -3.6275594453        1.7091078647
 H          3.6980032806       -2.5999586021        0.7191426830
 H          3.3550221005       -2.5169327190       -1.8016840397
 H          3.6046615215       -4.2610084657       -1.8799607143
 H          2.1385471296       -3.5450012686       -2.5564770127
 H          2.3351284193       -5.8036227775       -0.4401252911
 H          0.8496810859       -5.2159991720       -1.1767281007
 H          1.0218211093       -5.2358858343        0.5867593315
 H         -0.6420318537       -3.8480894549       -0.2150728628
 H          2.5716611507       -1.0167034916       -0.2359441698
 H          3.1526769839        1.0783216883       -1.7549132527
 H          5.4951701230        1.4982982379       -1.0839126280
 H          6.0272236114        2.0501405358        1.2592230630
 H          4.2204877611        2.1827916830        2.9349970054
 H          1.8814722296        1.7488818194        2.2597838379
 H          1.8178113917        3.5897895962       -0.4577424850
 H          0.4160580850        5.5323371833       -0.9138759461
 H         -2.0396524115        5.2806227749       -1.0986258213
 H         -3.0597217465        3.0796568144       -0.7519388051
 H         -4.2012839863        2.0246853600        0.6545990759
 H         -6.4118403235        1.0735858692        1.0954458102
 H         -6.7560445019       -1.3708915078        0.9550850848
 H         -4.8397484992       -2.8452165186        0.4143950528
