55
 energy: -86.242329114358 gnorm: 0.000057561719 xtb: 6.7.1 (edcfbbe)
O           -5.34539538197145       -0.00059282816791       -0.00194614014995
C           -4.12646629506324       -0.00041665530757       -0.00099547433064
C           -3.34789509453954       -1.25531706337627       -0.00029213792484
C           -4.04781505566581       -2.46451299690825       -0.00028403205204
C           -3.37716065658336       -3.66747062565784        0.00036703818593
C           -1.98887393247988       -3.67575707554867        0.00099297886127
C           -1.28862744057183       -2.48559152278090        0.00096946852202
C           -1.95395631172506       -1.26418062357441        0.00035147678316
C           -1.12789947675444        0.00001807195336        0.00026381629205
C           -1.95432201625140        1.26397486760213        0.00024181594425
C           -1.28934455273554        2.48557705790506        0.00075266437511
C           -1.98993431785608        3.67554075365474        0.00067339788334
C           -3.37821878335365        3.66685397407051        0.00005008079061
C           -4.04852707803133        2.46370328770165       -0.00049607569729
C           -3.34825834806207        1.25470929528087       -0.00040014440837
C           -0.27947980704377        0.00007575954353       -1.25833083284823
C           -0.92468167605078        0.00005993071445       -2.48525344405866
C           -0.21237519546268        0.00008733073636       -3.66991715323326
C            1.17145922984610        0.00013108433891       -3.62566412670317
C            1.83016704580797        0.00014731921126       -2.41336936074147
C            1.11638389124602        0.00011724368983       -1.21162612671996
N            1.78833620126746        0.00013772818714       -0.00008722033774
C            3.21258827102352        0.00010687543026       -0.00026665021428
C            3.90570390675849        1.20354319497957       -0.00030514231011
C            5.28928556456466        1.19990699511741       -0.00048844102057
C            5.98110616277279        0.00002984872519       -0.00063736888816
C            5.28921919728982       -1.19980863396552       -0.00059581495807
C            3.90563720499810       -1.20336727460563       -0.00041097443086
C            1.11667720185036        0.00021347538798        1.21161303672356
C            1.83073714351012        0.00031619751577        2.41319157528341
C            1.17230790949269        0.00039957304473        3.62563964294760
C           -0.21151832691662        0.00038064757564        3.67020702816670
C           -0.92409478308932        0.00026796006288        2.48570390320608
C           -0.27917527506906        0.00018314892654        1.25863292978188
H           -5.12702952929479       -2.42201521999883       -0.00079866921214
H           -3.92574512087332       -4.59743381500208        0.00036861096725
H           -1.45357458724327       -4.61397693056968        0.00149344245023
H           -0.20794198465449       -2.49628828185063        0.00145912528824
H           -0.20866173383789        2.49658176192499        0.00123968113344
H           -1.45490574642708        4.61391499398072        0.00109159977268
H           -3.92707141170695        4.59665895437978       -0.00002858272690
H           -5.12772927268331        2.42089443850423       -0.00100637767398
H           -2.00531670812527        0.00002148518022       -2.50413276709140
H           -0.73131687714677        0.00007202349150       -4.61564878728973
H            1.74518719980545        0.00015292762132       -4.54042975116479
H            2.90941098025838        0.00018462800939       -2.39114127803271
H            3.35564141671608        2.13303037771028       -0.00019052383284
H            5.82805139821776        2.13562965439787       -0.00052349493303
H            7.06070440090985       -0.00000004468783       -0.00079000875726
H            5.82793259412658       -2.13556144467239       -0.00071363418971
H            3.35552391045810       -2.13282440029636       -0.00038086363874
H            2.90997528258516        0.00032754398648        2.39070737055440
H            1.74624822682615        0.00047795985260        4.54027482444066
H           -0.73024524497118        0.00044568037191        4.61605688216483
H           -2.00472631809898        0.00024038620186        2.50480800905395
