55
 energy: -86.242329204500 gnorm: 0.000041126682 xtb: 6.7.1 (edcfbbe)
O           -5.10584958004669       -0.02487856762937       -0.03953307377868
C           -3.88727902145712       -0.01684247239775       -0.01156851871732
C           -3.10229217747204       -1.26512664535596        0.06979573532149
C           -3.79596802884620       -2.47635361792194        0.13141824254190
C           -3.11923577009874       -3.67330902282366        0.21004682405566
C           -1.73104475721236       -3.67347145791411        0.22781235995907
C           -1.03690941422251       -2.48129473148315        0.16647071795154
C           -1.70842016265458       -1.26583178528912        0.08741624664636
C           -0.88907302425687        0.00087691342141        0.01797937820773
C           -1.72218022901796        1.25908282649088       -0.04069203183869
C           -1.06363325521248        2.48329317660026       -0.08678125701397
C           -1.77046567872718        3.66815581280146       -0.14428105461827
C           -3.15861535669503        3.65152912829758       -0.15758154681942
C           -3.82256110115136        2.44565751112767       -0.11385187905349
C           -3.11595032151935        1.24177006146240       -0.05541619111831
C           -0.05213245017613       -0.05758890163468       -1.24719972527365
C           -0.70868844398659       -0.11694987719412       -2.46667726724366
C           -0.00754968137936       -0.16261667725334       -3.65703234033412
C            1.37649396335520       -0.14338004537143       -3.62625183739697
C            2.04627868381927       -0.08488890048296       -2.42148385601298
C            1.34405143758407       -0.04674669199077       -1.21349072621621
N            2.02738389114612        0.01013865489098       -0.00930503462678
C            3.45120004646658        0.00846126429479       -0.02230267770909
C            4.14710196267194        1.20873130008160        0.04130173505715
C            5.53060232846531        1.20274903151804        0.03001144256752
C            6.21993844045051        0.00388863214845       -0.04664891088599
C            5.52545252526406       -1.19269203557940       -0.11130348420782
C            4.14197134674642       -1.19404498987451       -0.09826375493537
C            1.36638301967552        0.06574533669638        1.20731230960443
C            2.09029634512411        0.11192510361439        2.40214983685190
C            1.44207296698691        0.17042872675874        3.61868664495600
C            0.05870597338170        0.18124357691247        3.67464293474177
C           -0.66366419330017        0.12728736862140        2.49738929633584
C           -0.02901445070938        0.06821478291452        1.26633859683838
H           -4.87530228322739       -2.44027509854871        0.11547240880262
H           -3.66303300450325       -4.60487417852103        0.25758325234464
H           -1.19100241235128       -4.60693889342146        0.28951831210569
H            0.04371899203624       -2.48575491904807        0.18054793129185
H            0.01692364350457        2.50035972489141       -0.07720828448110
H           -1.24040745178092        4.60870366279019       -0.17905600741246
H           -3.71232427208033        4.57736952073975       -0.20234666977719
H           -4.90146077348311        2.39674700139493       -0.12366976942117
H           -1.78939595272347       -0.12621468759762       -2.47534216042164
H           -0.53523590904642       -0.20935316443716       -4.59675540921286
H            1.94175126584968       -0.17274858631666       -4.54580949737852
H            3.12548207560920       -0.06605790017286       -2.41055827915113
H            3.59917985530935        2.13755056428320        0.10145041567019
H            6.07129501564613        2.13603222637170        0.07990886214260
H            7.29948982601939        0.00210218280700       -0.05595897326556
H            6.06207731706972       -2.12776869164454       -0.17059652718096
H            3.58993038611144       -2.12098808878825       -0.14901873308533
H            3.16921656194984        0.09965503362845        2.37172469748560
H            2.02379235050653        0.20657517575241        4.52768453451175
H           -0.45197003167564        0.22795915692559        4.62372738512712
H           -1.74411185374813        0.12964575636607        2.52509214449777
