  73
       -119.31510236
 O          4.9869696416        1.2706639043       -1.1135761002
 C          5.2211962627        0.2955623193       -0.3489204773
 C          6.5589123832       -0.1584039911       -0.0458140664
 C          7.6799526598        0.4717710182       -0.6119826792
 C          8.9545299982        0.0310684164       -0.3166720536
 C          9.1507891181       -1.0434649631        0.5374250928
 C          8.0542678692       -1.6840060162        1.1054647266
 C          6.7708034196       -1.2502480612        0.8190778354
 O          5.7431587797       -1.9294127466        1.4069163049
 C          4.4696488325       -1.5407041522        1.1422546330
 C          3.4488492683       -2.2548785156        1.7472034696
 C          2.1192984664       -1.9136549237        1.5221483849
 C          1.8012201430       -0.8390950397        0.6916469739
 C          0.4048140920       -0.4690928295        0.4361396271
 C         -0.5742597984       -1.4477513240        0.2837271896
 C         -1.8927048660       -1.0940389416        0.0196927573
 N         -2.8572475314       -2.0935664842       -0.1627774665
 C         -2.7394905091       -3.1752236288       -1.0142115651
 C         -1.7107810635       -3.5070785336       -1.8849605593
 C         -1.8583752988       -4.6486689349       -2.6502885184
 C         -3.0017335156       -5.4390772995       -2.5645533116
 C         -4.0402462591       -5.0990350481       -1.7180018676
 C         -3.9146494129       -3.9580074498       -0.9390576656
 C         -4.7774464219       -3.3098699130        0.0112561453
 C         -6.0367887563       -3.6037459415        0.5132232357
 C         -6.5852246321       -2.7601775742        1.4611643546
 C         -5.8857422450       -1.6473327450        1.9207972668
 C         -4.6296942507       -1.3362507242        1.4357588377
 C         -4.0855230777       -2.1624252358        0.4631577043
 C         -2.2511920619        0.2453563032       -0.0890031408
 C         -1.2785659540        1.2270201934        0.0741607438
 N         -1.6186479073        2.5788532407       -0.0544474554
 C         -0.9512235295        3.4980003578       -0.8422206417
 C          0.1321360967        3.3149180061       -1.6906823783
 C          0.5974076761        4.4137759318       -2.3882936782
 C         -0.0035072140        5.6633025400       -2.2598590933
 C         -1.1005736551        5.8453597291       -1.4376929751
 C         -1.5829010806        4.7574640247       -0.7254097167
 C         -2.6821204391        4.5808171370        0.1855933279
 C         -3.6404541176        5.4394858789        0.7023436398
 C         -4.5638550849        4.9376767728        1.6013275982
 C         -4.5261561307        3.6036803707        1.9977687093
 C         -3.5787763949        2.7307200831        1.4969952332
 C         -2.6672296862        3.2205122460        0.5728195215
 C          0.0388664902        0.8705663123        0.3375009777
 C          2.8236826285       -0.1161320021        0.0881308584
 C          4.1718929540       -0.4552116711        0.2916711284
 H          7.5107058944        1.3059357264       -1.2739248599
 H          9.8039107762        0.5337358510       -0.7554306016
 H         10.1470178838       -1.3881285618        0.7658607648
 H          8.1776553015       -2.5253843868        1.7692034528
 H          3.7086584285       -3.0736019174        2.3994117683
 H          1.3394781503       -2.4662159042        2.0217585835
 H         -0.3115661873       -2.4909281872        0.3658101868
 H         -0.8282537669       -2.8920402180       -1.9724918292
 H         -1.0703659703       -4.9311186435       -3.3320618880
 H         -3.0783313643       -6.3244337379       -3.1773885400
 H         -4.9330877472       -5.7029165426       -1.6641988669
 H         -6.5720287181       -4.4764456610        0.1715309737
 H         -7.5656308844       -2.9694890249        1.8616886073
 H         -6.3316232068       -1.0166158140        2.6752716231
 H         -4.0843060453       -0.4866624610        1.8158740590
 H         -3.2649528425        0.5184517772       -0.3387179808
 H          0.5938903442        2.3476664457       -1.8137429140
 H          1.4447356488        4.2981694215       -3.0466887746
 H          0.3905304439        6.4984859085       -2.8189027714
 H         -1.5754814606        6.8106939449       -1.3510051082
 H         -3.6587095289        6.4784527877        0.4109055619
 H         -5.3194504070        5.5894652106        2.0130037840
 H         -5.2485443743        3.2440240809        2.7150034386
 H         -3.5416758666        1.7053144824        1.8296236185
 H          0.7758987023        1.6416974637        0.4974725183
 H          2.6137543015        0.7025270682       -0.5812341092
