73
 energy: -119.410116437951 gnorm: 0.000155596358 xtb: 6.7.1 (edcfbbe)
O            5.03215546858000        1.23434348397974       -1.14475432527680
C            5.24518178137659        0.30421273715461       -0.38770816648261
C            6.59556739142456       -0.16789692968112       -0.04607202716362
C            7.72078677284475        0.45571370529665       -0.59252282413277
C            8.98788441974631        0.02205392727785       -0.27850107528241
C            9.15525735592259       -1.05059042398334        0.59323301972040
C            8.06206568078006       -1.68214745842073        1.14452075043909
C            6.77483468295315       -1.24526388736323        0.82886481654311
O            5.74293059244423       -1.90950581534104        1.40423520406482
C            4.47615945887604       -1.51996096579890        1.13032806021225
C            3.44266990442395       -2.22920186613485        1.74528624774220
C            2.13279403386937       -1.88447160437738        1.50687000903629
C            1.80700380987105       -0.82093638707736        0.65573768120329
C            0.40461038480947       -0.45755542064029        0.40443078074002
C           -0.56641498003275       -1.44310323093330        0.26084738839106
C           -1.88917772717431       -1.09553770004754        0.01008286250463
N           -2.85070030156124       -2.09931791009776       -0.16361694314613
C           -2.74265724792496       -3.17581084021145       -1.02369204835205
C           -1.72785177606055       -3.49930686494098       -1.91267636137784
C           -1.88476546002284       -4.63446857143365       -2.68485923729146
C           -3.02446610414901       -5.42951819007486       -2.58740869963916
C           -4.04833362934390       -5.09890244217578       -1.72259025310879
C           -3.91386901450803       -3.96240244638738       -0.93608576086694
C           -4.76354112877571       -3.32474044322384        0.03040331764404
C           -6.01537228260129       -3.62765698413501        0.54941826577128
C           -6.55327512340836       -2.79427729289900        1.50962854031324
C           -5.85142404180338       -1.68095773104011        1.96589174589714
C           -4.60440121630065       -1.36094028450365        1.46492977883178
C           -4.07058501709419       -2.17744767343819        0.47931707162090
C           -2.25216562013164        0.24259092569861       -0.09355021883565
C           -1.28680979515766        1.23187102703545        0.06160539633345
N           -1.63369220734684        2.58148891543467       -0.05957484122057
C           -0.97067287780283        3.51117034111232       -0.84124897652856
C            0.10904081589441        3.34107709017813       -1.69546261340771
C            0.56655774116048        4.44668513528061       -2.38648960736066
C           -0.03800442933607        5.69365745680801       -2.24589769438617
C           -1.13068313795546        5.86305701781833       -1.41958643400842
C           -1.60675080172952        4.76631656346576       -0.71314078445892
C           -2.70285141631510        4.57918995218651        0.19604521423358
C           -3.66355361684275        5.43355113459083        0.72020570068235
C           -4.58495646313820        4.92548031555459        1.61404672419157
C           -4.54491467998665        3.58779343377615        1.99931716019170
C           -3.59688889613282        2.72011783167802        1.49201695843551
C           -2.68555761052227        3.21678265961206        0.57242800869458
C            0.03528464421033        0.87987603748801        0.31269115174980
C            2.83708412793940       -0.12068944018562        0.05242512642147
C            4.17233627695552       -0.45610226488565        0.27426053790325
H            7.55438536947112        1.28427372582294       -1.26430957370455
H            9.85117476276312        0.50928303676726       -0.70466567418134
H           10.14868688714852       -1.39276020140131        0.84106145675633
H            8.17302841092285       -2.51460767365829        1.82144051599816
H            3.69673856718175       -3.04275278611415        2.40640057551273
H            1.34339701089917       -2.42985618605494        2.00162604250405
H           -0.29816678776852       -2.48589481043494        0.33173498511892
H           -0.84846159363776       -2.88055176273020       -2.01028808441121
H           -1.10731785695724       -4.90880852383765       -3.38256631034672
H           -3.10768359009552       -6.31046702877273       -3.20627968587688
H           -4.93907544217415       -5.70539968244907       -1.65832399095531
H           -6.55129418054678       -4.50054011604402        0.20842587600987
H           -7.52702582509651       -3.00995488285667        1.92341417369827
H           -6.28925227476204       -1.05671194358939        2.73077647669462
H           -4.05828469810367       -0.51013732285369        1.84207173841311
H           -3.27097006788193        0.50999343560879       -0.32814221786781
H            0.57287569700712        2.37596337225200       -1.83086014680730
H            1.41049872746468        4.33943303994698       -3.05133882786729
H            0.35107249138206        6.53432104170348       -2.80071505278895
H           -1.61132877882070        6.82494257518769       -1.32341055928596
H           -3.68246898757285        6.47449988482076        0.43481248366596
H           -5.34225383556451        5.57246141096937        2.03103978575354
H           -5.26749441316706        3.22093002765675        2.71332044747238
H           -3.56147703228273        1.69174957770836        1.81624779274910
H            0.76973735296935        1.65484427454224        0.46683450537500
H            2.64099842358138        0.69679503092011       -0.62518275811660
