  103
  -158.654550147000       0.545955196605306      !
 C          7.9626781049        1.6034971544       -1.3017966065
 C          6.7702508231        1.2561040650       -1.9162163167
 C          6.0761565820        0.1332632929       -1.5125667538
 C          6.5726999552       -0.6638716409       -0.4812354620
 N          5.8935350065       -1.8225002701       -0.0874978640
 C          6.6213715286       -2.9644056946        0.2617923040
 C          7.7918179238       -3.2922457855       -0.4236945961
 C          8.5114842227       -4.4174240918       -0.0726712026
 C          8.0770411178       -5.2350886103        0.9582468310
 C          6.9138634496       -4.9158961764        1.6402835620
 C          6.1900050004       -3.7896367413        1.3010141777
 C          4.4993376822       -1.8379232044       -0.0540815307
 C          3.7892965931       -2.9934608334       -0.3893217066
 C          2.4108457584       -3.0026512663       -0.3543312731
 C          1.6981999613       -1.8663454561        0.0250104724
 C          0.2330699801       -1.8487133486        0.0782130287
 C         -0.4180127568       -1.2138583509        1.1357199420
 C         -1.7911269149       -1.1082263834        1.1614957953
 C         -2.5565055072       -1.6144258196        0.1101630231
 C         -3.9937577093       -1.3979950003        0.0291778734
 N         -4.8640826906       -2.2998661110       -0.3482351970
 C         -6.0782355960       -1.6910332197       -0.2924416459
 C         -7.3525658057       -2.2579424816       -0.5705948743
 C         -7.4806630532       -3.5949168728       -0.9623917086
 C         -8.7206063917       -4.1311837378       -1.2039917885
 C         -9.8524297545       -3.3325086658       -1.0526913994
 C         -9.7379947209       -2.0157624752       -0.6713221153
 C         -8.4883292169       -1.4289108070       -0.4214425256
 C         -8.3329433583       -0.0326076998       -0.0511024422
 C         -9.4348512735        0.8269291815        0.0601606259
 C         -9.2921874036        2.1609578951        0.3618388725
 C         -8.0244666611        2.7043822446        0.5449526896
 C         -6.9192184493        1.8944988514        0.4571486402
 C         -7.0466843219        0.5237427441        0.1896981895
 C         -5.9364557728       -0.3632280874        0.1157287147
 N         -4.5910312614       -0.1894190562        0.3264768080
 C         -3.8657692282        0.9337371132        0.7704644680
 C         -4.1269338215        1.5030703192        2.0156367025
 C         -3.3008844254        2.5170390496        2.4760846721
 C         -2.1966443305        2.9127118072        1.7486007049
 C         -1.9131441761        2.3348324467        0.5031949561
 C         -0.7281094642        2.6703354818       -0.2635417335
 C         -0.8464767733        2.9274674588       -1.6343978040
 C          0.2237539855        3.3082411093       -2.3956084932
 C          1.5302221763        3.4078754514       -1.8238927566
 C          2.6350275582        3.7987054075       -2.5781260779
 C          3.9009142974        3.8627691103       -2.0124006297
 C          4.1066200682        3.5043020417       -0.6767332272
 C          5.3969675048        3.5322967736       -0.0807402319
 C          5.5796133912        3.1345287677        1.2293766425
 C          4.5112836314        2.7240430052        1.9986149928
 C          3.1922297499        2.7137109292        1.4606999965
 C          2.0854942605        2.3154971582        2.2126184296
 C          0.8088032422        2.3043873990        1.6612622859
 C          0.5817052621        2.7049188758        0.3429794703
 C          1.6979277329        3.0772591073       -0.4536088938
 C          2.9957387299        3.0993020796        0.1090520746
 C         -2.8009246300        1.3764731227        0.0047136468
 C         -1.9155052435       -2.3159539233       -0.9098035869
 C         -0.5408144657       -2.4351851795       -0.9218718637
 C          2.4132799419       -0.7142727323        0.3540422277
 C          3.7891815460       -0.6930613644        0.3133753279
 C          7.7651496600       -0.3012896870        0.1449584702
 C          8.4519417274        0.8238674724       -0.2666850423
 H          8.5077885445        2.4771932063       -1.6255198854
 H          6.3798288054        1.8557633553       -2.7244897561
 H          5.1520386524       -0.1400106605       -1.9992878733
 H          8.1252367281       -2.6617449694       -1.2347120879
 H          9.4134090172       -4.6618544709       -0.6137259109
 H          8.6407993558       -6.1147416369        1.2280485876
 H          6.5711831997       -5.5444427984        2.4487407397
 H          5.2898811197       -3.5353037996        1.8408597098
 H          4.3288948321       -3.8811608751       -0.6849257470
 H          1.8784251859       -3.9072022716       -0.6088785920
 H          0.1653758379       -0.8088019319        1.9487246130
 H         -2.2721894208       -0.6340001833        2.0030755349
 H         -6.5790443639       -4.1791279764       -1.0608121410
 H         -8.8238052225       -5.1627737620       -1.5062108761
 H        -10.8312638777       -3.7507577325       -1.2377727252
 H        -10.6419712571       -1.4369745697       -0.5680540626
 H        -10.4305308756        0.4457490433       -0.0980207805
 H        -10.1655823450        2.7911283302        0.4422405297
 H         -7.9095450119        3.7579014575        0.7532675710
 H         -5.9368180704        2.3203020736        0.5831355696
 H         -4.9548734137        1.1465230784        2.6095658941
 H         -3.5109587775        2.9805804132        3.4288819709
 H         -1.5559244578        3.6959496283        2.1245721529
 H         -1.8291028987        2.8791844563       -2.0830123296
 H          0.0986456912        3.5489936785       -3.4407630463
 H          2.4970105971        4.0550670525       -3.6189451085
 H          4.7425485251        4.1860852009       -2.6078584667
 H          6.2344079089        3.8667265391       -0.6724029830
 H          6.5734348919        3.1442304512        1.6543638627
 H          4.6556254536        2.4097301180        3.0216219417
 H          2.2278515534        2.0015419776        3.2369816435
 H         -0.0160609557        1.9522021118        2.2608262491
 H         -2.6075422051        0.9157436429       -0.9521878006
 H         -2.5131856460       -2.7403569621       -1.7017173014
 H         -0.0549907789       -2.9494215606       -1.7380629438
 H          1.8788982505        0.1796990069        0.6314375241
 H          4.3225793324        0.2085266999        0.5745082945
 H          8.1445603877       -0.9070375106        0.9547753178
 H          9.3726196579        1.0958992812        0.2280764616
  103
  -158.654298049000       0.418119849084267      !
 C          7.8789898773       -2.9732869625       -3.9468074752
 C          6.6639744624       -2.3203785491       -4.0798519627
 C          5.9951101779       -1.8524697887       -2.9657173210
 C          6.5358027578       -2.0391174863       -1.6930593102
 N          5.8611167175       -1.5718705708       -0.5607975050
 C          6.5878019854       -1.0299628429        0.5047008930
 C          6.1956347843       -1.2653622639        1.8226980618
 C          6.9295644934       -0.7441060444        2.8694001273
 C          8.0629740731        0.0140652593        2.6233996235
 C          8.4531227620        0.2563303392        1.3161037449
 C          7.7230243791       -0.2565139263        0.2622021433
 C          4.4702339868       -1.6447153234       -0.4916847720
 C          3.7764310437       -2.7107895735       -1.0697834790
 C          2.4007052636       -2.7713566643       -0.9966790200
 C          1.6736083631       -1.7835908065       -0.3325380404
 C          0.2108861485       -1.8125816158       -0.2506874016
 C         -0.4369682534       -1.4013358821        0.9149517830
 C         -1.8110104933       -1.3183333545        0.9708484425
 C         -2.5816587596       -1.6291826479       -0.1498105656
 C         -4.0196263182       -1.3990726560       -0.1864620034
 N         -4.9000144878       -2.2324151401       -0.6785999714
 C         -6.1069950355       -1.6195701263       -0.5463507920
 C         -7.3899141050       -2.1315413771       -0.8854152782
 C         -7.5411625497       -3.4185600545       -1.4129327077
 C         -8.7910959255       -3.9098822327       -1.6957685936
 C         -9.9099945741       -3.1170243077       -1.4484387474
 C         -9.7726489194       -1.8470201685       -0.9379446849
 C         -8.5120320064       -1.3045970956       -0.6464777787
 C         -8.3324072568        0.0475427907       -0.1458091382
 C         -9.4141000217        0.9258631250        0.0086616048
 C         -9.2456241124        2.2229994957        0.4328501762
 C         -7.9709863425        2.7092690592        0.7057103181
 C         -6.8850492406        1.8792736075        0.5757901801
 C         -7.0397318750        0.5438936623        0.1765991170
 C         -5.9478952079       -0.3562462975        0.0258633308
 N         -4.6015602102       -0.2311978746        0.2648336705
 C         -3.8791902687        0.8002889906        0.8951666523
 C         -4.2007820374        1.1985485008        2.1919466888
 C         -3.3960588847        2.1323107271        2.8261892987
 C         -2.2503236385        2.6055356857        2.2187149889
 C         -1.8980015472        2.1870863692        0.9278821575
 C         -0.6582463320        2.5728739555        0.2810127079
 C         -0.6820759298        2.9769741577       -1.0592809968
 C          0.4500277421        3.3592465352       -1.7230292747
 C          1.7269934151        3.3033655007       -1.0833262023
 C          2.8980467623        3.6519819412       -1.7531543852
 C          4.1353254188        3.5489424833       -1.1329346028
 C          4.2394206988        3.0808595793        0.1803671416
 C          5.4967572329        2.9365134023        0.8291588341
 C          5.5734337100        2.4705044668        2.1273340932
 C          4.4343936268        2.1187667936        2.8200555065
 C          3.1513048541        2.2365116104        2.2134957402
 C          1.9806565004        1.8524518099        2.8696309667
 C          0.7412958105        1.9581702535        2.2490359740
 C          0.6128657096        2.4835956186        0.9612447835
 C          1.7940241565        2.8509748688        0.2604655804
 C          3.0575974124        2.7306372991        0.8860041922
 C         -2.7689260514        1.3230870646        0.2556348330
 C         -1.9444885754       -2.1203475414       -1.2879806604
 C         -0.5686466625       -2.2116305380       -1.3358771615
 C          2.3749488666       -0.7251413625        0.2472511961
 C          3.7462524248       -0.6483115964        0.1654709503
 C          7.7585954223       -2.6989177240       -1.5643554495
 C          8.4219868251       -3.1579550701       -2.6853121010
 H          8.3984724467       -3.3369954180       -4.8198866959
 H          6.2372817798       -2.1662479571       -5.0598084961
 H          5.0549979843       -1.3312996350       -3.0699223343
 H          5.3209653345       -1.8680394099        2.0163916872
 H          6.6195061765       -0.9394023339        3.8851865110
 H          8.6393632945        0.4119242237        3.4449338805
 H          9.3295620270        0.8545829953        1.1152638680
 H          8.0227021438       -0.0596900925       -0.7564905447
 H          4.3268001294       -3.4960722076       -1.5668486460
 H          1.8838817189       -3.6132213483       -1.4331413012
 H          0.1484621670       -1.1491133956        1.7861100645
 H         -2.2901142557       -1.0102055360        1.8877850603
 H         -6.6496007187       -4.0037282295       -1.5763615786
 H         -8.9122973802       -4.9043188154       -2.0990056748
 H        -10.8967654544       -3.5026018018       -1.6604187936
 H        -10.6671077085       -1.2715260261       -0.7604573599
 H        -10.4130553975        0.5917328958       -0.2192597357
 H        -10.1034995868        2.8705015940        0.5387673095
 H         -7.8349468521        3.7356674071        1.0128579331
 H         -5.8963724570        2.2636714327        0.7679901181
 H         -5.0629959576        0.7786088516        2.6873171747
 H         -3.6566968883        2.4698042260        3.8186143555
 H         -1.6295492246        3.3269160142        2.7281210516
 H         -1.6384279882        3.0363065735       -1.5602201282
 H          0.3992445184        3.7098625773       -2.7430451468
 H          2.8359116372        3.9991655315       -2.7746989460
 H          5.0326667150        3.8247678597       -1.6676947579
 H          6.3934974702        3.1957647702        0.2868106930
 H          6.5393052785        2.3712594300        2.6006174201
 H          4.4980847851        1.7423664799        3.8297610797
 H          2.0436637194        1.4528522323        3.8717871292
 H         -0.1327786818        1.5985470930        2.7685870246
 H         -2.5292621789        0.9965723424       -0.7446985380
 H         -2.5451553834       -2.3960062043       -2.1411213300
 H         -0.0874670389       -2.5514908130       -2.2410347781
 H          1.8307943628        0.0642318528        0.7380016236
 H          4.2677315911        0.1910762568        0.5974285704
 H          8.1771028640       -2.8526676373       -0.5806250503
 H          9.3656198262       -3.6705318837       -2.5721925425
  103
  -158.651978687900       3.592495431042727E-002 !
 C          7.5356014507       -0.5054714096       -4.2084474244
 C          6.2888388778        0.0242364609       -3.9158814593
 C          5.6968009647       -0.2123444954       -2.6907858886
 C          6.3522150943       -0.9903274100       -1.7363665144
 N          5.7582191140       -1.2298286346       -0.4914412870
 C          6.5332363897       -1.1949268122        0.6686953957
 C          6.2162094275       -2.0095521258        1.7569571864
 C          6.9777762196       -1.9626178157        2.9075711745
 C          8.0717066779       -1.1165309558        2.9925536240
 C          8.4001424883       -0.3165475233        1.9102239787
 C          7.6401132209       -0.3499167874        0.7580796484
 C          4.3799681673       -1.4270963973       -0.4195200614
 C          3.7059873737       -2.1186307232       -1.4287074306
 C          2.3384341354       -2.2782109700       -1.3769108761
 C          1.5839536251       -1.7483449497       -0.3269451108
 C          0.1213249196       -1.8331041200       -0.3009965453
 C         -0.5841167320       -1.7602943910        0.9028275405
 C         -1.9602665073       -1.6907936929        0.9192984638
 C         -2.6840588833       -1.7267733889       -0.2700892826
 C         -4.1217490321       -1.4616502232       -0.2819927369
 N         -5.0548326590       -2.2486228375       -0.7433665884
 C         -6.2272119617       -1.5773951026       -0.5612781375
 C         -7.5443155629       -2.0267919149       -0.8531709877
 C         -7.7758950758       -3.3003012106       -1.3845151926
 C         -9.0574379019       -3.7313482741       -1.6194459751
 C        -10.1280046092       -2.8912461217       -1.3193719762
 C         -9.9119655022       -1.6342083332       -0.8045255175
 C         -8.6169074466       -1.1523734272       -0.5614827932
 C         -8.3548175738        0.1863467505       -0.0624148920
 C         -9.3879407807        1.1121995798        0.1406126534
 C         -9.1422158232        2.3999553002        0.5551084020
 C         -7.8353788004        2.8289965984        0.7650229457
 C         -6.7952232894        1.9502533770        0.5889612071
 C         -7.0282551199        0.6218622628        0.2048246942
 C         -5.9865265678       -0.3288724436        0.0126376695
 N         -4.6265194827       -0.2710007083        0.2017516378
 C         -3.8211682697        0.7077255714        0.8147360439
 C         -4.1111712118        1.1768057209        2.0953534588
 C         -3.2439337165        2.0832955050        2.6865762011
 C         -2.0633933767        2.4438090808        2.0689321048
 C         -1.7231049280        1.9232794163        0.8102502884
 C         -0.4441821913        2.1383619381        0.1667606887
 C         -0.4012735557        2.3420653785       -1.2208789305
 C          0.7694621077        2.5392240063       -1.8942413860
 C          2.0222404194        2.5166162881       -1.2074256723
 C          3.2290416067        2.6998971794       -1.8793988117
 C          4.4387235715        2.6648724731       -1.2009740108
 C          4.4760840977        2.4251597497        0.1763300292
 C          5.7017440157        2.3655889479        0.8920625750
 C          5.7178398166        2.1085843949        2.2495557065
 C          4.5436818930        1.9005265714        2.9412576848
 C          3.2882072531        1.9539537102        2.2710533276
 C          2.0835239784        1.6977323778        2.9273036475
 C          0.8723853121        1.7356881158        2.2467138177
 C          0.8034178985        2.0773453967        0.8944263824
 C          2.0222518336        2.2861105158        0.1929266149
 C          3.2580444824        2.2285435985        0.8788949816
 C         -2.6673380641        1.1117928786        0.1686493909
 C         -1.9966164148       -1.9025511256       -1.4676144779
 C         -0.6174720939       -1.9370520867       -1.4815465928
 C          2.2741287045       -1.0866625060        0.6915424079
 C          3.6407504187       -0.9339579292        0.6553210614
 C          7.6044885783       -1.5263342902       -2.0363378392
 C          8.1888889357       -1.2805140252       -3.2636166918
 H          7.9947673177       -0.3168192074       -5.1666792819
 H          5.7765171259        0.6344627346       -4.6448557162
 H          4.7328474978        0.2126582634       -2.4550911783
 H          5.3741144300       -2.6818916714        1.6893800016
 H          6.7207101664       -2.5992904266        3.7411078662
 H          8.6647194626       -1.0836368831        3.8936226432
 H          9.2515261822        0.3457052331        1.9663814778
 H          7.8931963945        0.2833309348       -0.0781029789
 H          4.2674295056       -2.5367804349       -2.2512883055
 H          1.8533529691       -2.8443684058       -2.1572233884
 H         -0.0493023351       -1.7487233039        1.8395810589
 H         -2.4830927909       -1.5985344241        1.8601987092
 H         -6.9193913258       -3.9229464332       -1.5909010269
 H         -9.2403335894       -4.7142333705       -2.0276606524
 H        -11.1391735144       -3.2297977904       -1.4932639552
 H        -10.7709947537       -1.0205358028       -0.5847276576
 H        -10.4102744053        0.8231574093       -0.0410253986
 H         -9.9643632503        3.0848979366        0.7011181895
 H         -7.6388290584        3.8492867937        1.0597815755
 H         -5.7821929660        2.2907639398        0.7302869535
 H         -5.0001180536        0.8420403807        2.6076009190
 H         -3.4866136493        2.4909314931        3.6570815470
 H         -1.4086009818        3.1598722252        2.5414248343
 H         -1.3350635732        2.3961283442       -1.7623297664
 H          0.7678792372        2.7286724865       -2.9575088535
 H          3.2154399408        2.8705838916       -2.9468462929
 H          5.3648446070        2.8179967420       -1.7362561239
 H          6.6231085457        2.5275628172        0.3537917036
 H          6.6623408385        2.0606845810        2.7723793500
 H          4.5580697675        1.6879725428        3.9998395283
 H          2.0971741694        1.4497462299        3.9793846717
 H         -0.0269839700        1.4648802711        2.7764973197
 H         -2.4548066326        0.7313589929       -0.8170299166
 H         -2.5546903026       -1.9618509663       -2.3901531605
 H         -0.1076212670       -2.0007079492       -2.4303951138
 H          1.7308733673       -0.6447724683        1.5103519946
 H          4.1451512715       -0.4034964138        1.4470361415
 H          8.1086124463       -2.1389423970       -1.3036576648
 H          9.1572629656       -1.7031583575       -3.4863954218
