  103
       -159.31004769
 C          7.4974871649       -3.0140144565       -3.0749346924
 C          6.2684369008       -2.3783157956       -3.1519077141
 C          5.6753341258       -1.8598399071       -2.0175574823
 C          6.3117244839       -1.9742424728       -0.7815717203
 N          5.7166700212       -1.4468341978        0.3707223311
 C          6.4977856683       -0.7792694788        1.3151812922
 C          6.1617097762       -0.8212529034        2.6693321730
 C          6.9296951067       -0.1488489495        3.5989400542
 C          8.0487306530        0.5652760123        3.2020095514
 C          8.3958016701        0.5982882906        1.8612139169
 C          7.6297501502       -0.0638773557        0.9226531684
 C          4.3335043809       -1.5306533726        0.5239870124
 C          3.6345212634       -2.6548536932        0.0784253209
 C          2.2630773696       -2.7194314665        0.1938460946
 C          1.5296226288       -1.6661388610        0.7461555899
 C          0.0652549752       -1.6813345899        0.7965206564
 C         -0.6320819749       -0.9175578660        1.7359395747
 C         -2.0054585996       -0.8136903453        1.6919165418
 C         -2.7355411836       -1.5001709311        0.7246849361
 C         -4.1647346555       -1.2499694879        0.5452686413
 N         -5.1229909533       -2.1339724084        0.6011299472
 C         -6.2739909683       -1.4468061471        0.3537888864
 C         -7.6052452440       -1.9464858120        0.3520245372
 C         -7.8771374332       -3.2892752990        0.6362299070
 C         -9.1720347603       -3.7424352536        0.6713443864
 C        -10.2156871598       -2.8521040088        0.4263361218
 C         -9.9598959678       -1.5318166351        0.1377258476
 C         -8.6499386771       -1.0326614034        0.0805772593
 C         -8.3457578147        0.3445436762       -0.2668587165
 C         -9.3498817391        1.2491429193       -0.6399573099
 C         -9.0639711124        2.5367920862       -1.0281801997
 C         -7.7439675249        2.9733864635       -1.0823967475
 C         -6.7312852574        2.1226596402       -0.7138192533
 C         -7.0055775182        0.8185324593       -0.2773519594
 C         -5.9935428682       -0.1005871214        0.1189254364
 N         -4.6315481045        0.0176275167        0.2593820677
 C         -3.7945463776        1.1489623459        0.2174869348
 C         -4.0644698810        2.2708775101        1.0001532259
 C         -3.1678635457        3.3287742818        0.9822525842
 C         -1.9800005934        3.2417279611        0.2847324723
 C         -1.6612448972        2.0886330925       -0.4499744795
 C         -0.3794974403        1.8646682446       -1.0847546982
 C         -0.3370118250        1.2416181217       -2.3412909978
 C          0.8359244462        0.9888648797       -2.9918652189
 C          2.0906629431        1.3269440941       -2.3977152539
 C          3.2992413791        1.0625942082       -3.0387817035
 C          4.5104940703        1.3868638207       -2.4450363600
 C          4.5471201383        1.9722552295       -1.1754695650
 C          5.7737862605        2.2971356644       -0.5368719454
 C          5.7885497234        2.8576214638        0.7259565172
 C          4.6119535831        3.1119404851        1.3977674076
 C          3.3555156178        2.8087172983        0.7997170340
 C          2.1468077944        3.0041085176        1.4693612043
 C          0.9341762859        2.6810562564        0.8721492781
 C          0.8691114636        2.1945524315       -0.4352328797
 C          2.0903386723        1.9340283951       -1.1149183153
 C          3.3270537921        2.2433501416       -0.5018067508
 C         -2.6322165429        1.0822638182       -0.5285446711
 C         -2.0592334220       -2.3445163231       -0.1512318547
 C         -0.6818090782       -2.4182509816       -0.1249858023
 C          2.2439467132       -0.5616265376        1.2165551566
 C          3.6143273150       -0.4938156773        1.1178420529
 C          7.5460609566       -2.6194809966       -0.7070346854
 C          8.1317947185       -3.1313966325       -1.8485350596
 H          7.9575951359       -3.4164800700       -3.9642902593
 H          5.7711276369       -2.2774560448       -4.1051988325
 H          4.7255797859       -1.3502391032       -2.0780499799
 H          5.2996525395       -1.3894941363        2.9850699555
 H          6.6576662595       -0.1910774080        4.6431792266
 H          8.6466564353        1.0887671635        3.9321556557
 H          9.2667896159        1.1514900287        1.5419422340
 H          7.8976835555       -0.0258611141       -0.1218666315
 H          4.1794141567       -3.4817296273       -0.3529372517
 H          1.7577106437       -3.6155097252       -0.1323039069
 H         -0.0927969209       -0.3897156211        2.5067973297
 H         -2.5209101064       -0.1884436344        2.4064294262
 H         -7.0405353089       -3.9417501071        0.8318171507
 H         -9.3860328455       -4.7776118698        0.8921777188
 H        -11.2372932498       -3.2018532228        0.4625948002
 H        -10.7992271995       -0.8790197059       -0.0417611476
 H        -10.3812086388        0.9359878303       -0.6383716598
 H         -9.8646582070        3.2051991934       -1.3084011495
 H         -7.5157364151        3.9744023970       -1.4176342674
 H         -5.7079121305        2.4554438933       -0.7779513838
 H         -4.9605964423        2.3112183211        1.6001712141
 H         -3.3937624760        4.2224959450        1.5454333162
 H         -1.3019696138        4.0813243417        0.2746928039
 H         -1.2712919872        1.0034213104       -2.8295926119
 H          0.8350270260        0.5398177246       -3.9741008254
 H          3.2857521920        0.5960733948       -4.0139429500
 H          5.4382591274        1.1831005544       -2.9602127228
 H          6.6970466779        2.0990758962       -1.0596015049
 H          6.7336327489        3.0899978793        1.1955738200
 H          4.6249399814        3.5389816865        2.3894573345
 H          2.1579709487        3.3983464427        2.4758450745
 H          0.0296192028        2.7842286082        1.4500805046
 H         -2.4357127864        0.2030897323       -1.1200701974
 H         -2.6231230000       -2.9028745206       -0.8835604854
 H         -0.1785120616       -3.0241543701       -0.8624725121
 H          1.7179220139        0.2821250401        1.6315534662
 H          4.1379946907        0.3788817942        1.4739235192
 H          8.0351223911       -2.7199679874        0.2505513853
 H          9.0860981140       -3.6318318375       -1.7787031836
