90
 energy: -133.941422622417 gnorm: 0.000061699743 xtb: 6.7.1 (edcfbbe)
C            8.49896882069603        3.25796980058614       -0.54911629220284
C            8.29557788735136        1.94412529195896        0.22892480984416
C            9.54997679382679        1.61923438206823        1.06189593568484
C            8.06550982009049        0.82267564426282       -0.76696676030246
C            9.04274510440936        0.53732135086737       -1.71126307405974
C            8.88089102531449       -0.45383683722382       -2.66189623475266
C            7.70243435757347       -1.17783613502231       -2.68802492748510
C            6.71564387231653       -0.91643187550601       -1.76057412014936
C            6.88780643852918        0.06730697781787       -0.78158788619009
N            5.88048447226383        0.29922451704138        0.14385545661128
C            4.71106812392301       -0.50480609446646        0.10712353390209
C            4.74751622154109       -1.81140486330206        0.58398802728262
C            3.61328049788063       -2.59825082881487        0.54576644617145
C            2.41831743536862       -2.09145263859025        0.03476646235731
C            1.19321168055380       -2.89522755922118       -0.01620665743530
C            1.20836462880501       -4.29499486325248       -0.07156462009103
C            0.00720280364900       -4.97051852352242       -0.07302400745353
C           -1.19035607026392       -4.24696258038554       -0.05255471943984
C           -2.40775552939034       -4.94907367197368        0.03597439861441
N           -3.36797660879494       -5.57180806373884        0.13945997034688
C           -1.11463727363455       -2.83754932550087       -0.06332760604103
C           -2.30224593288635       -1.97524134572502       -0.09509816125285
C           -2.27759918242581       -0.76786003945944        0.60390881760468
C           -3.37376157359532        0.06965335883349        0.59577432859224
C           -4.51061912447149       -0.27773164465839       -0.12833719451887
N           -5.63907134804584        0.58325204425913       -0.14244310865030
C           -6.76073440399954        0.23654666143223        0.59755476052610
C           -6.74353212326842       -0.92280986869217        1.37930906127500
C           -7.84448865152343       -1.29707676253628        2.12099807880109
C           -8.98436648242657       -0.51350174339544        2.10451001267117
C           -8.99537521170041        0.64573226641701        1.35078283454890
C           -7.90139998767223        1.04674137119612        0.59541800850029
C           -7.97076228162573        2.34591845228778       -0.18557426032188
C           -8.21538532234034        3.50075191098350        0.80415102910351
C           -9.12980260358459        2.25650628803328       -1.19623629333863
C           -6.68564458769565        2.61738291396109       -0.94532051032871
C           -6.58186004181250        3.76378206260636       -1.72209232889538
C           -5.44704124429181        4.05540436822652       -2.45637657336963
C           -4.38233103433147        3.17265354967044       -2.43192712221379
C           -4.45813343787465        2.02679616094793       -1.66800999958542
C           -5.59553283659562        1.74124649673727       -0.90624885122078
C           -4.53211492729905       -1.46911921824744       -0.84616016380285
C           -3.43790685798226       -2.31207023870615       -0.82853855872873
N            0.05078897101775       -2.21453128711537       -0.02638650324985
C            2.38650567249659       -0.77441955079983       -0.42813432538482
C            3.52067419445273        0.01002905557093       -0.39840757581753
C            5.98540313150272        1.29455892786770        1.10532400422108
C            4.95803738102375        1.46815181492139        2.03799697865150
C            5.02995760402629        2.45340347515827        3.00049895186162
C            6.13614259313165        3.28208304183289        3.05624515959971
C            7.16451710272946        3.09620791774405        2.15068906915253
C            7.11892113095182        2.11193144751261        1.17223534216006
H            7.61004522994299        3.48263119609639       -1.13638605757855
H            8.67984500410317        4.08644098192675        0.13004403491559
H            9.34600291595918        3.18184066936410       -1.22522602645867
H            9.40234743501418        0.68864801868991        1.60764500411066
H            9.75370810019996        2.40861855193671        1.78007347279932
H           10.42165346110823        1.50759536431528        0.42295326494318
H            9.96106568670396        1.10489234538247       -1.71173870546349
H            9.66367638365414       -0.65068717345480       -3.37913500820152
H            7.54630512803612       -1.94526514825555       -3.43223910438849
H            5.79465436590471       -1.47770717897383       -1.79648794138123
H            5.67097895642746       -2.20206674970786        0.98533412158896
H            3.65495293194485       -3.60017035495693        0.94450941313651
H            2.13790194284763       -4.83770732584161       -0.11753161000193
H           -0.02436976398431       -6.05085617038623       -0.08577490124934
H           -1.39110543227556       -0.50714739578717        1.16095305307447
H           -3.35861722117463        0.99906398112017        1.14543121685811
H           -5.85591533238722       -1.53624519093676        1.40677490238137
H           -7.80665602576154       -2.20009241082290        2.71269670312496
H           -9.85446646322997       -0.79647003070689        2.67786916777332
H           -9.88679859749762        1.25459483793366        1.35745189216815
H           -9.14111785032810        3.35159826920742        1.35288958392438
H           -7.39685151333702        3.55505683234215        1.52006086918041
H           -8.27838532568937        4.45150443420662        0.28210929561718
H           -8.95055369313471        1.44047580263461       -1.89447181928333
H          -10.07292254119922        2.07294176373363       -0.68913638490430
H           -9.22273534279934        3.17862769010624       -1.76313735834249
H           -7.41052159467992        4.45458255150772       -1.76044460670864
H           -5.40016770918685        4.95786426137815       -3.04734740797567
H           -3.49097218142824        3.37140070055393       -3.00891131834746
H           -3.62754624904231        1.33807283658806       -1.66492809266441
H           -5.41073193695830       -1.72929636999984       -1.41747941975847
H           -3.46097659267946       -3.22166452845196       -1.40973738185655
H            1.45899880205694       -0.38571272011609       -0.81843907342110
H            3.49522902503244        1.02622253868951       -0.76307427962271
H            4.09599087477253        0.81970574875921        2.00996244448945
H            4.22119990565678        2.56932913125393        3.70717918255266
H            6.20382326321814        4.05978458800425        3.80221816136340
H            8.02845854538092        3.74034265762724        2.21483491498217
