  81
       -125.47071069
 Br        -5.0265289175        4.5188929664       -0.5256138328
 C         -3.9686522992        3.2130393895        0.3896535281
 C         -3.1555013717        3.6137447270        1.4388982957
 C         -2.3925750062        2.6512940761        2.0879134725
 C         -2.4519701552        1.3271332980        1.7092611624
 C         -3.2781190676        0.9377330668        0.6472704340
 N         -3.3793829438       -0.3996393177        0.2837233521
 C         -2.3392309473       -1.3204612765        0.0746416235
 C         -0.9621656842       -1.0656722140        0.0065429351
 C         -0.0751441050       -2.1847531002        0.0141441820
 C          1.2717214261       -2.0264650173       -0.0274037782
 C          1.8768105530       -0.7375253805       -0.0907602098
 C          3.2915089451       -0.5608735193       -0.0884787507
 C          4.1830841220       -1.6087350614       -0.4312549671
 C          5.5394454015       -1.4365073315       -0.4243533566
 C          6.1084444343       -0.2009200997       -0.0710125095
 N          7.4855593005       -0.0243825447       -0.0623812274
 C          8.0370416702        1.2128890980       -0.4097509423
 C          7.4679001824        1.9782404690       -1.4294165462
 C          8.0105714318        3.2032464202       -1.7625346026
 C          9.1261817475        3.6821402761       -1.0935683832
 C          9.6979568064        2.9236792946       -0.0839815926
 C          9.1606420067        1.6994917666        0.2609787581
 C          8.3272057819       -1.0814527447        0.2990936670
 C          9.5457380531       -1.2700799601       -0.3554549263
 C         10.3723606835       -2.3152090991        0.0062360081
 C         10.0001089231       -3.1871963229        1.0173917881
 C          8.7907845015       -3.0043577327        1.6697179380
 C          7.9579433833       -1.9605882919        1.3188194981
 C          5.2432006449        0.8512204050        0.2746580063
 C          3.8873964546        0.6765450709        0.2650538590
 C          0.9851359539        0.3677399061       -0.1766149557
 C         -0.3658220516        0.2202723638       -0.1382544561
 N         -2.8546502860       -2.5376993877       -0.1600517924
 C         -4.1805820755       -2.4242699126       -0.1662942068
 C         -5.0300305737       -3.5865197232       -0.3668584463
 C         -6.2729392322       -3.7108393705        0.2542865481
 C         -7.0427792190       -4.8392357067        0.0467410150
 C         -6.5867929639       -5.8573505824       -0.7752532784
 C         -5.3436858139       -5.7504509121       -1.3791008693
 C         -4.5676028140       -4.6271760297       -1.1733642635
 C         -4.5602692834       -1.0866823647        0.0999075884
 C         -5.8757244184       -0.5079460841        0.2094237041
 C         -6.8580491232       -0.8365674269       -0.7351679617
 C         -8.1181780309       -0.2830470995       -0.6566691709
 C         -8.4326791212        0.6040231512        0.3633671877
 C         -7.4747164933        0.9234744055        1.3139228719
 C         -6.2090571334        0.3792708791        1.2419945365
 C         -4.0406875899        1.9009347093       -0.0220230585
 H         -3.1208331699        4.6475829499        1.7414187958
 H         -1.7567978301        2.9460101838        2.9085743789
 H         -1.8708266114        0.5792600389        2.2259880181
 H         -0.5211888102       -3.1638861969        0.0848099147
 H          1.9006196203       -2.9010586777        0.0331041707
 H          3.7860445131       -2.5582425040       -0.7529234504
 H          6.1894726068       -2.2475308282       -0.7200125028
 H          6.6077469530        1.5972831231       -1.9601595827
 H          7.5643915116        3.7840869366       -2.5559074961
 H          9.5472362485        4.6400092292       -1.3572686059
 H         10.5637333539        3.2924270288        0.4454133823
 H          9.5978220537        1.1152996010        1.0575925645
 H          9.8295969426       -0.5984196038       -1.1525257798
 H         11.3103821998       -2.4544611215       -0.5100438576
 H         10.6484301499       -4.0035189365        1.2960173410
 H          8.4967435853       -3.6749421347        2.4632836499
 H          7.0222857107       -1.8079947634        1.8364671243
 H          5.6647843701        1.7987857837        0.5781973402
 H          3.2601996147        1.4945268219        0.5823263259
 H          1.3897239003        1.3563896186       -0.3327496872
 H         -0.9924146545        1.0862814718       -0.2783848519
 H         -6.6254961253       -2.9328171620        0.9140407595
 H         -8.0033725631       -4.9270250839        0.5332197393
 H         -7.1954641943       -6.7346210165       -0.9376681932
 H         -4.9808526714       -6.5469174316       -2.0120823015
 H         -3.5962287955       -4.5290334776       -1.6327554303
 H         -6.6091553955       -1.5152864164       -1.5373016671
 H         -8.8606150968       -0.5365822206       -1.3989039096
 H         -9.4181904733        1.0404106324        0.4189225700
 H         -7.7184884461        1.6019981454        2.1183503054
 H         -5.4802518339        0.6133691983        2.0038227011
 H         -4.6684739837        1.6161528761       -0.8507735833
