45
 energy: -74.390450528141 gnorm: 0.000080792853 xtb: 6.7.1 (edcfbbe)
O           -3.92662274251863        2.11963503629505        2.19581294008368
S           -3.63826943661579        1.99357931122585        0.78206051992410
O           -3.84224826941124        3.17119622635309       -0.03590226599248
C           -4.60694767635925        0.63866504371669        0.11175940083926
C           -5.25750772723242       -0.22814767795969        0.96783762441074
C           -5.96608696061696       -1.29451409500243        0.43729826144147
C           -6.00940639261642       -1.47916952940642       -0.93598213769166
C           -5.35196208787757       -0.60106307201320       -1.78488913711294
C           -4.64272076930552        0.46629597037390       -1.25905747658310
C           -1.94120032866563        1.44696268983551        0.58470840618012
C           -1.46141598653113        0.45106892579608        1.41621725501928
C           -0.16606716145790       -0.00194757289907        1.25819655004557
C            0.64576578227273        0.53732317832193        0.25732842469503
N            1.95573180621227        0.08326397591645        0.09852868351958
C            2.35518531485602       -1.24169254138697        0.03913902740367
C            1.58903945516322       -2.39845616422163        0.04433104965751
C            2.24729674180262       -3.60980734302306       -0.06175390886141
C            3.63368312101854       -3.67690433802482       -0.18122292074263
C            4.39875169744876       -2.52771616629693       -0.21561789389603
C            3.75922244645434       -1.29909872411707       -0.11042562598104
C            4.22610133388899        0.06031972533121       -0.13024080492815
C            5.48821480172285        0.63289511434181       -0.22333601063632
C            5.59540222783190        2.00894993334996       -0.17844319825752
C            4.46567475698248        2.80983723294281       -0.02674674178523
C            3.19938336170953        2.26246975797852        0.06665214794241
C            3.08305726721544        0.88172499512312       -0.00423240235085
C            0.14357792337476        1.53696764615456       -0.57799905950443
C           -1.15106272256851        1.99116069823183       -0.41016952645429
H           -5.20787034759355       -0.04516279175440        2.03008727228472
H           -6.48272138668750       -1.97700820962134        1.09469564128215
H           -6.56174560450145       -2.31024141817412       -1.34805046470199
H           -5.39245581417452       -0.74615494873748       -2.85355350797244
H           -4.13062666675983        1.17428813486300       -1.89151029030791
H           -2.09937115239502        0.06195281818356        2.19376930669577
H            0.23173676956810       -0.75725210616867        1.91800642934174
H            0.51292177176566       -2.35939530007285        0.11694077969940
H            1.67276523186533       -4.52447336417690       -0.05610237131869
H            4.11150902535891       -4.64245667082934       -0.25883223143425
H            5.47139671504132       -2.57796062124805       -0.32706827043139
H            6.36531521575963        0.01114432082922       -0.32151678112112
H            6.56710908645847        2.47485370591791       -0.25073755589318
H            4.58107887829944        3.88269249983356        0.02298687535827
H            2.33481823483690        2.89360228480866        0.20525661984546
H            0.76494840592823        1.94037206811503       -1.36245923685846
H           -1.56337413896787        2.76739836126802       -1.03576639486058
