45
 energy: -74.280845683456 gnorm: 0.000040041840 xtb: 6.7.1 (edcfbbe)
O           -3.97586312579602        1.22244029964845        2.15242772827393
S           -3.56021861357197        1.29800291073610        0.76157968901963
O           -3.90727080774423        2.50864289268270        0.03614090916456
C           -4.23079234645130       -0.10800414155460       -0.11090647741040
C           -4.47746283409655       -1.28347910910579        0.58300067915370
C           -4.89429001110363       -2.40462644396738       -0.10987172737417
C           -5.05161912767730       -2.35093700501788       -1.48892374708422
C           -4.79721904607726       -1.17052927161950       -2.17586740973401
C           -4.38010224944223       -0.04617749301874       -1.48848634504028
C           -1.82650429514189        1.03001586619824        0.65420414206954
C           -1.19310497819858        0.17864670609899        1.58345671889050
C            0.11491772696704       -0.16495843131525        1.41972243730143
C            0.86051974767098        0.34228602172063        0.31437447642316
N            2.18566139718821        0.01141903481797        0.15463213226791
C            2.72686383530573       -1.24973622563959        0.32377937934998
C            2.09018522040593       -2.45257308110779        0.59789664713446
C            2.87094048744863       -3.59729703603953        0.69308673217450
C            4.25275386589055       -3.54083287245582        0.50366470241343
C            4.89390682202817       -2.35037071088661        0.18948293338528
C            4.13351409133157       -1.19305761436472        0.08003475078285
C            4.43348056917392        0.16264673959588       -0.26297082126245
C            5.60151733122432        0.83565810621272       -0.59744791786347
C            5.53911802708233        2.20290198351103       -0.82915430979011
C            4.33926634177327        2.90742977379803       -0.71785618160406
C            3.15646796217976        2.25564737865939       -0.39356293211215
C            3.20059818498328        0.88199899580509       -0.19788796559809
C            0.20784143808835        1.20172906661376       -0.61790766972896
C           -1.10880563102121        1.51391729825396       -0.45935779742665
H           -4.35827944437608       -1.28668456809304        1.65535003968582
H           -5.09957041268601       -3.32076193414364        0.42353737018182
H           -5.37595098900410       -3.22800279264758       -2.02807979105374
H           -4.92685313039096       -1.12879009117331       -3.24701447673143
H           -4.18611303499755        0.88957281488190       -1.98939152802550
H           -1.76585085173499       -0.15177276014247        2.43526481417612
H            0.62724860810601       -0.75229456661216        2.16603930101675
H            1.01877072544993       -2.50658789723801        0.71028376863981
H            2.40002967062809       -4.54403700309542        0.90510295640993
H            4.83148239926974       -4.44867508959334        0.58657140045882
H            5.95995918461917       -2.32443317857123        0.02656353677400
H            6.53913236319153        0.30680854324448       -0.66743675008268
H            6.44084057337636        2.73924429183762       -1.08449392680894
H            4.33069605404011        3.97454076549836       -0.87385110866547
H            2.23884185603069        2.80991718237657       -0.27475799140532
H            0.75049951417809        1.53171711639055       -1.49017865371168
H           -1.63337378972874        2.14130822884525       -1.16228134314518
