45
 energy: -74.390440706261 gnorm: 0.000051678742 xtb: 6.7.1 (edcfbbe)
O           -3.86901266271560        1.71876626840932        1.66852490436216
S           -3.52176951839581        1.38728059980746        0.30195447253121
O           -3.82754678634470        2.37864591778479       -0.70863777703529
C           -4.31560045355779       -0.16183497319918       -0.13783360221902
C           -4.95920049734659       -0.90525507522908        0.83185382524561
C           -5.54117080952820       -2.11287894436223        0.47989318310541
C           -5.46661898002916       -2.55875885426743       -0.83061772814459
C           -4.81555230701509       -1.80327047256614       -1.79473265459302
C           -4.23264065621791       -0.59564452529485       -1.44752333020637
C           -1.76908188203419        1.01257184026785        0.22523838600176
C           -1.23057385211038        0.16471091324914        1.17636385098649
C            0.11219478735261       -0.15467441079282        1.12074596392992
C            0.91319279559222        0.36750396447824        0.10209070883882
N            2.26907681290584        0.04333234102136        0.04329916781077
C            2.80326072239200       -1.23096108536731        0.14163239604032
C            2.15865414273860       -2.45546750425879        0.24278067336473
C            2.94024847367550       -3.59508758588922        0.28861862200499
C            4.33013486510179       -3.52751398492153        0.22389084723015
C            4.97592991493501       -2.31346913735646        0.09575832393392
C            4.21116553752691       -1.15492006909762        0.04832363762628
C            4.53817532890205        0.23706917635662       -0.10090220197344
C            5.73878983489924        0.92676305281839       -0.21160695615708
C            5.70375645502161        2.30350371989708       -0.31501674387495
C            4.49285261373553        2.99182243460688       -0.29255635272960
C            3.28557850417771        2.32650635525794       -0.18389252675980
C            3.31315958518680        0.94151753367225       -0.10591948602389
C            0.35231009198267        1.21697637809376       -0.85338858038372
C           -0.99023428703276        1.53938564429935       -0.78752686721317
H           -5.00288368260583       -0.51995368751778        1.83888439599560
H           -6.05116527692637       -2.70167334210720        1.22694877740182
H           -5.92111569094678       -3.49930704797084       -1.10343204392956
H           -4.76253043324042       -2.15277679312525       -2.81446063363130
H           -3.72931632098364        0.02119860818411       -2.17533457692161
H           -1.86351176156646       -0.21517492066299        1.96258392156688
H            0.55305141471641       -0.79095543931646        1.87232777025509
H            1.08196726618002       -2.52309646990635        0.27323334061232
H            2.46138294409936       -4.55969691334527        0.37197542825905
H            4.90619026049211       -4.44019445112313        0.26515544026824
H            6.05209812739640       -2.26158024813100        0.02742550395143
H            6.67778161238613        0.39400219414194       -0.21027005882801
H            6.62570246766026        2.85904614837114       -0.40385731301055
H            4.49635560551726        4.07010761706338       -0.35756115254804
H            2.35596616558534        2.87369445437990       -0.14629231440396
H            0.96696971920773        1.60526970156257       -1.65061406633881
H           -1.45053307561734        2.19642806971778       -1.50898594785826
