  45
        -74.24412245
 O         -4.0511260749        0.9983255935        2.1202118568
 S         -3.6205554449        1.2010322226        0.7562714128
 O         -3.9944470486        2.4340833744        0.1032920970
 C         -4.1667811399       -0.1839205188       -0.2433459194
 C         -4.2981370443       -0.0234380854       -1.6131341474
 C         -4.6106556476       -1.1197573533       -2.3953791857
 C         -4.7759385585       -2.3669741668       -1.8086994195
 C         -4.6385637224       -2.5174929726       -0.4354811496
 C         -4.3263128600       -1.4249639169        0.3519003219
 C         -1.8752132794        0.9658004805        0.6371942542
 C         -1.2252740822        0.0923414898        1.5306653977
 C          0.0939204709       -0.2040109217        1.3615783023
 C          0.8285848190        0.3671149222        0.2813558911
 N          2.1619205319        0.0837726650        0.1133119404
 C          2.7469747229       -1.1624698053        0.2551899106
 C          2.1542006513       -2.3910117213        0.5011125336
 C          2.9753448468       -3.5099947497        0.5772478018
 C          4.3552572740       -3.3988672393        0.3962353298
 C          4.9533198810       -2.1825376178        0.1063902729
 C          4.1514452312       -1.0492058650        0.0129134163
 C          4.4030053829        0.3181008141       -0.3047636342
 C          5.5477871915        1.0384648653       -0.6312266374
 C          5.4392975503        2.4059448978       -0.8311559062
 C          4.2188067846        3.0692566600       -0.6951414647
 C          3.0586154435        2.3703634140       -0.3820430155
 C          3.1477275074        0.9966389451       -0.2222353285
 C          0.1536719380        1.2375160547       -0.6233892153
 C         -1.1726257708        1.5027271203       -0.4582357091
 H         -4.1749896839        0.9607795069       -2.0365633666
 H         -4.7267655588       -1.0041456002       -3.4626055309
 H         -5.0164898965       -3.2222037055       -2.4219518174
 H         -4.7764680030       -3.4871269016        0.0191340027
 H         -4.2251369575       -1.5056692243        1.4225489129
 H         -1.7892911188       -0.2873075413        2.3670821165
 H          0.6238635675       -0.8011002724        2.0879280558
 H          1.0844930343       -2.4876381082        0.6058942180
 H          2.5378755842       -4.4766945829        0.7679210677
 H          4.9657753032       -4.2866794778        0.4660088491
 H          6.0183261337       -2.1131423142       -0.0512291945
 H          6.5008890183        0.5404918308       -0.7180462842
 H          6.3210797829        2.9771370149       -1.0800698122
 H          4.1744969709        4.1386711895       -0.8241013642
 H          2.1246976038        2.8927795772       -0.2442486063
 H          0.6903304866        1.6119468521       -1.4815335379
 H         -1.7112908520        2.1374638189       -1.1431390615
