  71
  -106.596652770400       0.351838201396336      !
 C          1.5578488386        5.1147730143       -0.1266384760
 C          2.8915316815        4.9587118783       -0.4660623289
 C          3.5662147127        3.8067425152       -0.1130006767
 C          2.9109372409        2.7969743042        0.5898632178
 C          1.5614788182        2.9488384388        0.9320434928
 C          0.9043972416        4.1098166078        0.5684694972
 C          0.8841073015        1.8698575308        1.7240388569
 C          1.5515306620        0.5358349576        1.5633403249
 C          2.9281762038        0.5040836712        1.3698383714
 C          3.6545033552       -0.6644032488        1.5977520201
 C          2.9902627429       -1.7812860812        2.1064369968
 C          1.6275650756       -1.7879003617        2.2488580039
 C          0.8462820056       -0.6706968751        1.8578136599
 C         -0.5618826481       -0.7947464403        1.6696804581
 C         -1.3607879068       -1.5493440910        2.5703025705
 C         -2.7148662974       -1.5221787368        2.4973227604
 C         -3.3642470242       -0.7833330421        1.4611601575
 C         -2.6082675025       -0.1118246395        0.4848890824
 C         -1.2280694649       -0.1535665308        0.5352960944
 C         -0.3758963856        0.3014252994       -0.5696372934
 C         -0.4438069499        1.6046311534       -1.0734578817
 C          0.4680960331        2.0636511530       -2.0011144950
 C          1.5014197997        1.2496597822       -2.4286910398
 C          1.5547461307       -0.0698075629       -1.9860369562
 C          0.5918731655       -0.5671466879       -1.1057462356
 C          0.5330931194       -2.0552819685       -0.8989687507
 C          1.8841949018       -2.6976637589       -0.9985796585
 C          2.1796011578       -3.8910751084       -0.3659255401
 C          3.4134976706       -4.4994668860       -0.5309080725
 C          4.3700697311       -3.9072946837       -1.3386545820
 C          4.1003094034       -2.7066246142       -1.9660687166
 C          2.8605749728       -2.0944327836       -1.7985245528
 N          2.5684358854       -0.9030201465       -2.4256252715
 C         -3.3310347465        0.5907742216       -0.6352336294
 C         -4.7859191743        0.2435253316       -0.7593446892
 C         -5.5164342407        0.6352830061       -1.8644867210
 C         -6.8778032043        0.3786302759       -1.9560559325
 C         -7.5275877093       -0.2780877730       -0.9167341505
 C         -6.8217739890       -0.6849530229        0.1925930066
 C         -5.4461738750       -0.4335220724        0.2818238756
 N         -4.7303858562       -0.8513055934        1.3685843067
 N          3.5805072448        1.6611239271        0.9771481184
 H          1.0299728416        6.0161361797       -0.3992922749
 H          3.4081041155        5.7376662518       -1.0071823336
 H          4.6080987349        3.6811744585       -0.3739703681
 H         -0.1339926642        4.2335923701        0.8409301940
 H          0.9429546657        2.1372502669        2.7923994581
 H         -0.1783959096        1.8138804815        1.4866664089
 H          4.7210420118       -0.6836231277        1.4321618116
 H          3.5607085312       -2.6656752644        2.3491102444
 H          1.1299839479       -2.6891036945        2.5729092530
 H         -0.8749513973       -2.0885852846        3.3695868432
 H         -3.3255085438       -2.0587214796        3.2095993721
 H         -1.1918706337        2.2843636645       -0.6989693059
 H          0.4042352782        3.0794807586       -2.3613477091
 H          2.2536834977        1.6208328802       -3.1096446828
 H         -0.1092408043       -2.4714633162       -1.6907885837
 H          0.0568411254       -2.3080738670        0.0481714604
 H          1.4285305735       -4.3565164402        0.2555464526
 H          3.6261205135       -5.4351152708       -0.0362737107
 H          5.3318292327       -4.3791601376       -1.4763356939
 H          4.8464412143       -2.2350811272       -2.5910365172
 H          3.2957183083       -0.4809049950       -2.9837708609
 H         -3.2713002648        1.6733646486       -0.4631738538
 H         -2.8151229062        0.4007804811       -1.5807993620
 H         -5.0130767142        1.1531442751       -2.6686519786
 H         -7.4291898005        0.6907080901       -2.8291569550
 H         -8.5872770687       -0.4742833442       -0.9812435799
 H         -7.3164453949       -1.2026733027        1.0025432116
 H         -5.2171363868       -1.3820406507        2.0774381666
 H          4.5564136301        1.5816174070        0.7344685162
  71
  -106.596311320400       0.245145224055127      !
 C          2.1092961535        4.8539686717       -0.3495535088
 C          3.3796836654        4.4963285113       -0.7691132667
 C          3.9079825228        3.2712867778       -0.4124325036
 C          3.1653860816        2.3885413144        0.3710586741
 C          1.8749104257        2.7405388356        0.7854907680
 C          1.3669430556        3.9736728841        0.4216144378
 C          1.0971755611        1.7858176097        1.6414373482
 C          1.5654417355        0.3681401697        1.4959352493
 C          2.9319178120        0.1564154181        1.2897049726
 C          3.5296287372       -1.0501390320        1.6299726874
 C          2.7504859669       -2.0319044041        2.2498164166
 C          1.3968681013       -1.8765778500        2.3903860943
 C          0.7297167608       -0.7213378969        1.9106330235
 C         -0.6882274300       -0.7140514293        1.7579412519
 C         -1.5020215076       -1.3853052292        2.7085574633
 C         -2.8567057167       -1.3684510084        2.6338347558
 C         -3.5005789356       -0.7161155815        1.5444743149
 C         -2.7419973032       -0.0622520507        0.5644945183
 C         -1.3562217922       -0.0710463181        0.6278410860
 C         -0.5355690718        0.4603693407       -0.4618459948
 C         -0.7019718424        1.7645571245       -0.9435440879
 C          0.1662720180        2.3086540287       -1.8665614966
 C          1.2751869524        1.5947177022       -2.2944007226
 C          1.4454452559        0.2862609824       -1.8574385384
 C          0.5139629761       -0.3117672823       -0.9990136000
 C          0.5350734666       -1.8112062084       -0.8941648704
 C          1.9247060891       -2.3649789201       -0.9846568068
 C          2.2714374387       -3.5765102469       -0.4170676799
 C          3.5532330296       -4.0853102889       -0.5521850231
 C          4.5051656177       -3.3728366132       -1.2619384021
 C          4.1796066680       -2.1571735626       -1.8318196861
 C          2.8904070948       -1.6467466780       -1.6979181053
 N          2.5415368592       -0.4449424841       -2.2736710309
 C         -3.4740565951        0.5914511674       -0.5805408071
 C         -4.8800202447        0.1036154535       -0.7757540053
 C         -5.5642130277        0.3490521038       -1.9505389225
 C         -6.8927629621       -0.0245930911       -2.0994217777
 C         -7.5547863448       -0.6506382801       -1.0506058991
 C         -6.8907826415       -0.9175817204        0.1264463946
 C         -5.5485127202       -0.5500270964        0.2727817088
 N         -4.8645514361       -0.8316613959        1.4237349775
 N          3.6947733737        1.1857015234        0.7682280739
 H          1.6974228564        5.8134591573       -0.6234406548
 H          3.9623939131        5.1757837547       -1.3736177973
 H          4.9026405257        2.9899881007       -0.7309332988
 H          0.3750713840        4.2498766564        0.7486837422
 H          1.2502835421        2.0677069030        2.6969377646
 H          0.0271088779        1.8777504624        1.4587879053
 H          4.5823803822       -1.2089459931        1.4536674309
 H          3.2244625103       -2.9445893121        2.5793983184
 H          0.8137919933       -2.6896928663        2.7951425788
 H         -1.0237161792       -1.8680187627        3.5471481067
 H         -3.4651317857       -1.8546999354        3.3833353439
 H         -1.4975446258        2.3785088469       -0.5520415268
 H          0.0121748294        3.3155922187       -2.2239239642
 H          1.9974865660        2.0420357335       -2.9612350916
 H         -0.0506266505       -2.2012147820       -1.7417233492
 H          0.0393563842       -2.1609837482        0.0103052147
 H          1.5258937741       -4.1307839370        0.1337454676
 H          3.8079118193       -5.0349171356       -0.1066161687
 H          5.5058016336       -3.7645644914       -1.3709691841
 H          4.9197104759       -1.5956513914       -2.3859540860
 H          3.2500313881        0.0494485441       -2.7954966858
 H         -3.5341357408        1.6708564196       -0.3871348485
 H         -2.9024728066        0.4701103130       -1.5041171804
 H         -5.0522117367        0.8467806008       -2.7619083227
 H         -7.4100237031        0.1759179197       -3.0247454151
 H         -8.5904886205       -0.9356507931       -1.1592384710
 H         -7.3946511314       -1.4144672418        0.9437629130
 H         -5.3486073061       -1.3494857634        2.1435832554
 H          4.6470724251        0.9732656234        0.5123736504
  71
  -106.595729259700       0.132411851984993      !
 C          1.5923949431        5.1155714858       -0.1407029921
 C          2.9345188266        4.9627496595       -0.4463642245
 C          3.6032198295        3.8129482996       -0.0749674783
 C          2.9328993494        2.8028062983        0.6130730406
 C          1.5752263764        2.9521816029        0.9228644916
 C          0.9242154256        4.1102418028        0.5402617413
 C          0.8849265989        1.8741773455        1.7051816686
 C          1.5523037911        0.5384030351        1.5508652039
 C          2.9313741918        0.5066996966        1.3815407960
 C          3.6541200970       -0.6662544348        1.6051330682
 C          2.9814179290       -1.7890233551        2.0858113591
 C          1.6161635451       -1.7932626940        2.2068550108
 C          0.8429374351       -0.6678214486        1.8242639170
 C         -0.5686102490       -0.7878725345        1.6457611889
 C         -1.3596590563       -1.5337849282        2.5638999235
 C         -2.7130489828       -1.5329885367        2.4853001537
 C         -3.3712970976       -0.8477427855        1.4192010222
 C         -2.6160735802       -0.2085273528        0.4132544999
 C         -1.2409980663       -0.1926483436        0.4961259836
 C         -0.3848394800        0.2780649801       -0.6052618144
 C         -0.4458223841        1.5911258575       -1.0791213598
 C          0.4710962926        2.0640940825       -1.9959894245
 C          1.5049252090        1.2554900539       -2.4303387910
 C          1.5554002076       -0.0706602134       -2.0080923340
 C          0.5803441771       -0.5817133510       -1.1488580777
 C          0.5296159604       -2.0717575983       -0.9541625790
 C          1.8943985032       -2.6904830143       -1.0061975085
 C          2.1940212463       -3.8704394121       -0.3511333169
 C          3.4485024783       -4.4478599069       -0.4617222115
 C          4.4209848608       -3.8367375607       -1.2354817455
 C          4.1439393988       -2.6518663942       -1.8894570151
 C          2.8826692784       -2.0724510623       -1.7793234420
 N          2.5806783738       -0.8969341133       -2.4354958199
 C         -3.3266185307        0.3554277349       -0.7904757548
 C         -4.8157771374        0.1726336063       -0.7945796861
 C         -5.5785117709        0.6339565758       -1.8502963223
 C         -6.9597913616        0.4968186770       -1.8588331652
 C         -7.6006244535       -0.1116960794       -0.7820262240
 C         -6.8671052456       -0.5808756513        0.2814039090
 C         -5.4703490482       -0.4470998131        0.2886817023
 N         -4.7343959328       -0.9191262038        1.3360885222
 N          3.5938762161        1.6671309513        1.0156767660
 H          1.0692378178        6.0153676523       -0.4272991870
 H          3.4625826588        5.7424971027       -0.9751381245
 H          4.6516231427        3.6895608992       -0.3096584392
 H         -0.1201511636        4.2332957263        0.7890248306
 H          0.9344052227        2.1404705584        2.7743003643
 H         -0.1743271739        1.8217942198        1.4559646662
 H          4.7232073968       -0.6832570041        1.4564132692
 H          3.5459293631       -2.6783410951        2.3237987442
 H          1.1108067137       -2.6969742365        2.5112754309
 H         -0.8657198525       -2.0422516935        3.3780680243
 H         -3.3175030053       -2.0549544434        3.2135747150
 H         -1.1927270848        2.2668070262       -0.6925385775
 H          0.4114858044        3.0860414970       -2.3392017840
 H          2.2637754812        1.6382967604       -3.0975305551
 H         -0.0740939505       -2.4903110496       -1.7743126257
 H          0.0221541211       -2.3353583379       -0.0264563829
 H          1.4313381944       -4.3482717816        0.2462896488
 H          3.6653662018       -5.3731454272        0.0502827295
 H          5.4000857899       -4.2830910155       -1.3282494558
 H          4.9014627483       -2.1680723647       -2.4909275848
 H          3.3206001969       -0.4624276260       -2.9674854709
 H         -3.1237674534        1.4282000513       -0.8638640533
 H         -2.8950003163       -0.0907033365       -1.6943323860
 H         -5.0830111957        1.1111305236       -2.6841448356
 H         -7.5348324164        0.8621666134       -2.6950272964
 H         -8.6750740380       -0.2167571057       -0.7836440704
 H         -7.3530177951       -1.0575043749        1.1214128061
 H         -5.2220265028       -1.4040163388        2.0767462817
 H          4.5744776100        1.5873495194        0.7921227280
  71
  -106.595632711500       0.119551871559122      !
 C          2.9916787491        4.1616249273       -0.8634158723
 C          4.1674783267        3.4976174817       -1.1732224169
 C          4.4482581407        2.2786529940       -0.5885174688
 C          3.5475563371        1.7112492643        0.3120108314
 C          2.3419551798        2.3630173857        0.6034863540
 C          2.0884902128        3.5898650805        0.0190095723
 C          1.3870011392        1.7313286539        1.5745028687
 C          1.5737737717        0.2436231917        1.6687497873
 C          2.8772189459       -0.2425330200        1.5644980779
 C          3.2420841122       -1.4825872127        2.0844108985
 C          2.2778108603       -2.2324834333        2.7604840421
 C          0.9725817716       -1.8225104623        2.7905665700
 C          0.5416625229       -0.6236741934        2.1523252655
 C         -0.8620157614       -0.4344014564        1.9817568490
 C         -1.7321487470       -0.8902606869        3.0231943810
 C         -3.0781028554       -0.9376668195        2.8834161439
 C         -3.6692010921       -0.5874746737        1.6397002707
 C         -2.8610979228       -0.0584708425        0.6095949207
 C         -1.4940239540        0.0562122743        0.7708068813
 C         -0.7073963497        0.6544810014       -0.3234080987
 C         -1.0098696360        1.9704503013       -0.6971986959
 C         -0.3165126033        2.6115873498       -1.7014756540
 C          0.7574996412        1.9825624934       -2.3068268093
 C          1.0926936338        0.6896081418       -1.9265216596
 C          0.3257984555       -0.0129206378       -0.9856811932
 C          0.5623238393       -1.4934961337       -0.8638056489
 C          2.0115002594       -1.8334036942       -1.0620448877
 C          2.5955139635       -2.9440737674       -0.4804363437
 C          3.9276417252       -3.2514000263       -0.7109533560
 C          4.6930029997       -2.4355788671       -1.5268924771
 C          4.1286653514       -1.3177216454       -2.1133395629
 C          2.7884112869       -1.0153341049       -1.8888514252
 N          2.2041733097        0.0835451765       -2.4828854462
 C         -3.5270106874        0.3235632833       -0.6881972876
 C         -4.9097742975       -0.2273276925       -0.8721635446
 C         -5.5347011322       -0.1863046443       -2.1032620747
 C         -6.8421936613       -0.6251260814       -2.2630470769
 C         -7.5490982937       -1.1087824434       -1.1644789429
 C         -6.9492470950       -1.1683405875        0.0710879142
 C         -5.6238623378       -0.7378475026        0.2304076456
 N         -5.0033206436       -0.8203058903        1.4430877836
 N          3.8423635797        0.5344051651        0.9496431901
 H          2.7784034833        5.1212634973       -1.3088550677
 H          4.8714226030        3.9345451260       -1.8665697903
 H          5.3687994563        1.7576238773       -0.8135649485
 H          1.1710927930        4.1060920985        0.2585377320
 H          1.5888220345        2.1491753160        2.5751717532
 H          0.3600166083        1.9980399947        1.3328117643
 H          4.2587342765       -1.8313324549        1.9933459587
 H          2.5604718578       -3.1680021544        3.2210932856
 H          0.2310423455       -2.4696605387        3.2329387747
 H         -1.2894583500       -1.1554984578        3.9710714391
 H         -3.7163609551       -1.2586917692        3.6948156015
 H         -1.7899510868        2.4982687319       -0.1681605644
 H         -0.5840238439        3.6168322141       -1.9917080077
 H          1.3489393635        2.4923882111       -3.0530518762
 H         -0.0251181550       -1.9928206967       -1.6497272177
 H          0.2082539843       -1.8773181377        0.0916185489
 H          1.9981369238       -3.5798924385        0.1551370814
 H          4.3661534665       -4.1263392941       -0.2556309437
 H          5.7324311302       -2.6683493784       -1.7079064424
 H          4.7186754531       -0.6731991302       -2.7506932267
 H          2.8050723318        0.6788395754       -3.0342341759
 H         -3.6049598611        1.4158979562       -0.7425014425
 H         -2.8914521096        0.0250108157       -1.5266696750
 H         -4.9911057123        0.1991913418       -2.9542659616
 H         -7.3106432889       -0.5871737562       -3.2338691092
 H         -8.5685800730       -1.4429340466       -1.2846714181
 H         -7.4852679462       -1.5498709172        0.9289242541
 H         -5.5241118747       -1.2120838528        2.2157064301
 H          4.7143183002        0.0797432397        0.7250978044
  71
  -106.595280423000       8.234851925983795E-002 !
 C          2.2821565788        4.5604138567       -0.6718051214
 C          3.5517687425        4.1223857717       -1.0115254708
 C          4.0134822960        2.9084926766       -0.5425009475
 C          3.2031204754        2.1183563760        0.2726158442
 C          1.9102415555        2.5472603336        0.6009303099
 C          1.4723174318        3.7712932199        0.1293772400
 C          1.0540654205        1.6871598555        1.4819448346
 C          1.4800386576        0.2484844870        1.4762025452
 C          2.8586645472       -0.0068451278        1.3860713724
 C          3.4176570494       -1.1608971477        1.9084287656
 C          2.5879795020       -2.0581472606        2.5910906515
 C          1.2313892095       -1.8722509576        2.6301928545
 C          0.6065785213       -0.7776904208        1.9850948631
 C         -0.8061727328       -0.7890684011        1.7833677440
 C         -1.6428411789       -1.3693680082        2.7768654769
 C         -2.9919280504       -1.4374203155        2.6399154187
 C         -3.6012921260       -0.9997604884        1.4367575794
 C         -2.8102798207       -0.4853206516        0.3966186618
 C         -1.4427491960       -0.3304789003        0.5604166861
 C         -0.6330519241        0.2666941920       -0.5046984398
 C         -0.9807134576        1.5324928422       -0.9925799839
 C         -0.1944503550        2.1927977287       -1.9145324290
 C          1.0091355366        1.6385503144       -2.3255602350
 C          1.3786048726        0.3880294843       -1.8506135937
 C          0.5450065657       -0.3371399197       -0.9798101474
 C          0.7977788741       -1.8138316424       -0.8505738040
 C          2.2568937325       -2.1483642978       -0.9441529542
 C          2.7842782638       -3.2940086764       -0.3787727812
 C          4.1293932542       -3.6005936100       -0.5099457219
 C          4.9646508843       -2.7505034903       -1.2153686636
 C          4.4578521625       -1.5988968721       -1.7857471980
 C          3.1047544318       -1.2931930850       -1.6569245961
 N          2.5839536387       -0.1586956604       -2.2359292553
 C         -3.4830447711       -0.3090703213       -0.9439865096
 C         -4.9543128897       -0.0371992681       -0.8418564173
 C         -5.6511171011        0.6016316461       -1.8483554047
 C         -7.0295120464        0.7549428614       -1.7800607841
 C         -7.7269761592        0.2545443135       -0.6873223806
 C         -7.0523244216       -0.3693826418        0.3391425123
 C         -5.6618660674       -0.5100951759        0.2780836221
 N         -4.9649523081       -1.0956945775        1.2998002765
 N          3.6696298791        0.9365961028        0.7858235170
 H          1.9236714122        5.5124162741       -1.0322819177
 H          4.1859551170        4.7306683285       -1.6396498853
 H          5.0080317943        2.5644632767       -0.7928094732
 H          0.4818430555        4.1111262944        0.3935997207
 H          1.1529222629        2.0517674902        2.5182751298
 H          0.0014068853        1.7980549230        1.2243437503
 H          4.4761696189       -1.3475455366        1.8130558816
 H          3.0254251163       -2.9317454511        3.0514449572
 H          0.6147736139       -2.6287861720        3.0911676424
 H         -1.1903073634       -1.7010039327        3.6986363727
 H         -3.6158756244       -1.8282673429        3.4314298473
 H         -1.8643414903        2.0201146186       -0.6048328769
 H         -0.4894853923        3.1634551117       -2.2836484405
 H          1.6633308906        2.1753560672       -2.9963769098
 H          0.2741547803       -2.3103579743       -1.6826876547
 H          0.3731349764       -2.2145822379        0.0685962011
 H          2.1324486415       -3.9543531893        0.1732863598
 H          4.5249319989       -4.4997100862       -0.0629361887
 H          6.0140708218       -2.9834954992       -1.3206565360
 H          5.1030519083       -0.9296758845       -2.3389322949
 H          3.2129459430        0.4388573824       -2.7516222821
 H         -3.0005986323        0.4579784867       -1.5459145815
 H         -3.3515538632       -1.2550941270       -1.4916292827
 H         -5.1114763374        0.9755081678       -2.7071000878
 H         -7.5581166667        1.2520471792       -2.5784765418
 H         -8.8004071503        0.3599017692       -0.6378937065
 H         -7.5854444416       -0.7498745230        1.1992438164
 H         -5.4869763115       -1.4423117957        2.0920577621
 H          4.6256532082        0.6736980754        0.6005388391
  71
  -106.594884976600       5.419025714602069E-002 !
 C          2.5862525068        4.4605221455       -0.6963508152
 C          3.7835413984        3.8976735088       -1.1061983049
 C          4.1728188404        2.6656559630       -0.6181429044
 C          3.3598503054        1.9812040968        0.2849437020
 C          2.1319858849        2.5313963459        0.6758149948
 C          1.7692051913        3.7729390176        0.1875171053
 C          1.2650860739        1.7729905670        1.6375659158
 C          1.5612488278        0.3017318327        1.6333804356
 C          2.8919149324       -0.0837451798        1.4561536031
 C          3.3620757617       -1.3057452951        1.9231799493
 C          2.4837556092       -2.1312901483        2.6324141461
 C          1.1546459406       -1.8209987818        2.7333462435
 C          0.6104466613       -0.6547907556        2.1266172497
 C         -0.7993727141       -0.5607839833        1.9492188715
 C         -1.6632139473       -1.1167267061        2.9440285945
 C         -3.0073294843       -1.1791854864        2.7854615865
 C         -3.6010402653       -0.7471278277        1.5697468036
 C         -2.7923291028       -0.1789280915        0.5624520264
 C         -1.4291815013       -0.0532583046        0.7444631172
 C         -0.6200206263        0.5361014840       -0.3379449070
 C         -0.8840974222        1.8516471818       -0.7342380123
 C         -0.1445106900        2.4671086769       -1.7227147492
 C          0.9359687957        1.8110586305       -2.2872185552
 C          1.2326084113        0.5156849255       -1.8852406208
 C          0.4224624536       -0.1582487289       -0.9582400508
 C          0.6045804269       -1.6449978549       -0.8232699267
 C          2.0365083441       -2.0510403115       -1.0163114318
 C          2.5577179189       -3.1976433575       -0.4464176021
 C          3.8720477586       -3.5737757054       -0.6752066748
 C          4.6824434098       -2.7911406801       -1.4801292925
 C          4.1825771893       -1.6361158920       -2.0514833378
 C          2.8599363031       -1.2628043308       -1.8268210219
 N          2.3412094767       -0.1238967443       -2.4048960451
 C         -3.4261718774        0.1864375591       -0.7565953585
 C         -4.8880847387       -0.1261406737       -0.8734475666
 C         -5.5688219132        0.1349671016       -2.0475864156
 C         -6.9271294012       -0.1220238070       -2.1675182902
 C         -7.6278220838       -0.6507971049       -1.0863007081
 C         -6.9754813123       -0.9220514002        0.0932281412
 C         -5.6018292649       -0.6651719167        0.2142757884
 N         -4.9427360412       -0.9369807337        1.3777245987
 N          3.7628818601        0.7875169496        0.8261431879
 H          2.2876693745        5.4291628690       -1.0673241580
 H          4.4197635156        4.4232356765       -1.8033468714
 H          5.1129223886        2.2253140274       -0.9223676582
 H          0.8344892496        4.2097168456        0.5066501245
 H          1.4745070750        2.1435436964        2.6552228939
 H          0.2112639488        1.9745126290        1.4522490518
 H          4.3917898362       -1.5889717147        1.7705869657
 H          2.8565515823       -3.0497134692        3.0621447837
 H          0.4862845233       -2.5259191987        3.2033562570
 H         -1.2244656868       -1.4458302878        3.8732650681
 H         -3.6446408631       -1.5721691073        3.5655545684
 H         -1.6656335019        2.4058577069       -0.2339645080
 H         -0.3808817105        3.4741923877       -2.0317801080
 H          1.5600410853        2.3034920053       -3.0183956285
 H         -0.0027994468       -2.1273908342       -1.6046503749
 H          0.2332373213       -2.0071926676        0.1340466987
 H          1.9245646279       -3.8056033885        0.1822783555
 H          4.2619013588       -4.4750487847       -0.2272984716
 H          5.7077210829       -3.0782916123       -1.6625537794
 H          4.8099227542       -1.0176738057       -2.6794248668
 H          2.9660682827        0.4396384382       -2.9625736629
 H         -3.2985293858        1.2552184860       -0.9483527259
 H         -2.8782413135       -0.3227609116       -1.5585051922
 H         -5.0253277898        0.5488667991       -2.8854360989
 H         -7.4382084155        0.0889043681       -3.0937368794
 H         -8.6852641949       -0.8495058225       -1.1749331712
 H         -7.5093834549       -1.3349957130        0.9378012167
 H         -5.4673805099       -1.3523658203        2.1348881724
 H          4.6640155221        0.4206405250        0.5596568245
  71
  -106.593028389200       7.597885047880830E-003 !
 C          2.7872943099        3.7818828817       -1.2437579486
 C          4.0729857928        3.2650024977       -1.2772954222
 C          4.4200714594        2.2198973822       -0.4442721300
 C          3.4739649416        1.6782801622        0.4238015002
 C          2.1667115559        2.1825154318        0.4475775910
 C          1.8460202115        3.2413596351       -0.3817271644
 C          1.1807973273        1.5843992258        1.4093752567
 C          1.5044866122        0.1482326283        1.7136731776
 C          2.8548346108       -0.1815524445        1.8219814225
 C          3.2854262305       -1.3410342067        2.4693070915
 C          2.3278484320       -2.1892474746        3.0204678941
 C          0.9941948915       -1.9371808315        2.8389137095
 C          0.5203555792       -0.8006628611        2.1202690226
 C         -0.8877060515       -0.7446719363        1.8570892589
 C         -1.7522433798       -1.2268648774        2.8885531367
 C         -3.0964739768       -1.3205558905        2.7448047202
 C         -3.6856603224       -1.0025750011        1.4934987274
 C         -2.8690335752       -0.5735745656        0.4267237944
 C         -1.5074036055       -0.3755359191        0.5964982171
 C         -0.7667434055        0.2438377257       -0.5135352904
 C         -1.2876172623        1.4622747995       -0.9913305186
 C         -0.7109601261        2.1340279612       -2.0463504854
 C          0.4679794879        1.6632619308       -2.5984240898
 C          1.0285389838        0.4911868962       -2.1014783721
 C          0.3830888425       -0.2703890245       -1.1172619621
 C          0.9083085716       -1.6596442070       -0.8758014048
 C          2.4062827958       -1.6924461429       -0.9812336502
 C          3.1854087339       -2.5879568254       -0.2700190385
 C          4.5633191715       -2.6067797257       -0.4213953404
 C          5.1769245374       -1.7250526763       -1.2963503414
 C          4.4154631293       -0.8264589110       -2.0202854013
 C          3.0325251391       -0.8071287784       -1.8664701992
 N          2.2539991130        0.0725088766       -2.5870734344
 C         -3.5380299849       -0.5276776046       -0.9257944933
 C         -4.9864077618       -0.1522110148       -0.8546413500
 C         -5.6436219856        0.4720588907       -1.8942659278
 C         -7.0099109353        0.7187783621       -1.8307144815
 C         -7.7355566265        0.3190483778       -0.7117266078
 C         -7.1010921311       -0.2919982110        0.3455069897
 C         -5.7192220485       -0.5175571146        0.2932600773
 N         -5.0472630268       -1.0713929239        1.3470294361
 N          3.8087480135        0.6663462862        1.2871428256
 H          2.5194426581        4.6077425835       -1.8853288628
 H          4.8090080578        3.6827325602       -1.9489259635
 H          5.4216670472        1.8135145173       -0.4549873443
 H          0.8474738013        3.6491889692       -0.3519710687
 H          1.2422231419        2.1439387232        2.3575075927
 H          0.1636853535        1.7048655215        1.0438468667
 H          4.3394092096       -1.5560969839        2.5508793028
 H          2.6423577123       -3.0753738785        3.5530646673
 H          0.2770378059       -2.6637631866        3.1882125726
 H         -1.3145583743       -1.4487927375        3.8495442095
 H         -3.7307957386       -1.6250510078        3.5651383498
 H         -2.1558253396        1.8811295813       -0.5025051988
 H         -1.1523341857        3.0489224480       -2.4145227052
 H          0.9696024078        2.2059824389       -3.3858428607
 H          0.4893421570       -2.3173348855       -1.6529061246
 H          0.5823797951       -2.0505421532        0.0860732410
 H          2.7078950312       -3.2805698881        0.4055915247
 H          5.1574382933       -3.3134361075        0.1384903246
 H          6.2504540157       -1.7378877152       -1.4182530648
 H          4.8830779936       -0.1340220420       -2.7063982769
 H          2.7417395927        0.7299640872       -3.1784166456
 H         -3.0115943846        0.1164109527       -1.6265607931
 H         -3.4784530611       -1.5476136896       -1.3365172367
 H         -5.0848211614        0.7655694351       -2.7716017611
 H         -7.5085323861        1.2118941580       -2.6503509439
 H         -8.7992981988        0.4983881477       -0.6685481000
 H         -7.6538492631       -0.5916724320        1.2248893609
 H         -5.5842560500       -1.3447882374        2.1587426274
 H          4.7481565678        0.3010455985        1.2318489781
  71
  -106.592939554000       6.916189550682661E-003 !
 C          3.4501484737        3.6169852799       -1.1594347875
 C          4.5684277587        2.8155674075       -1.3262868270
 C          4.7183777678        1.6714206497       -0.5682505024
 C          3.7407686095        1.3171166292        0.3599864670
 C          2.5978760921        2.1114645826        0.5181032682
 C          2.4757508829        3.2615278710       -0.2394015848
 C          1.5736666989        1.7124275926        1.5425117698
 C          1.5842567755        0.2304448260        1.7992881672
 C          2.8214135980       -0.4072733807        1.7710685490
 C          3.0251219276       -1.6552416947        2.3650539082
 C          1.9633010991       -2.2522605799        3.0428802239
 C          0.7188753259       -1.6845913138        3.0150253419
 C          0.4478916753       -0.4759885168        2.3022062147
 C         -0.9297793883       -0.1583078545        2.1132597428
 C         -1.8354676543       -0.4919031272        3.1831002046
 C         -3.1717393272       -0.6063176144        3.0060392255
 C         -3.7188995279       -0.4360296532        1.7070056358
 C         -2.8919827024        0.0734888374        0.6727359851
 C         -1.5438602531        0.2678172175        0.8702224766
 C         -0.7904376138        0.8947110355       -0.2362704285
 C         -1.1340597003        2.2121678573       -0.5657355181
 C         -0.5248531204        2.8664426417       -1.6158370972
 C          0.4918387904        2.2438412840       -2.3176283178
 C          0.8643619055        0.9478178776       -1.9811066615
 C          0.1830752071        0.2389811719       -0.9832635465
 C          0.4686326198       -1.2313383429       -0.8502256459
 C          1.9127671914       -1.5247277332       -1.1376090491
 C          2.5815213470       -2.5856011782       -0.5540697247
 C          3.9029900099       -2.8546794209       -0.8753505044
 C          4.5664972827       -2.0574521606       -1.7930433505
 C          3.9161054885       -0.9884612341       -2.3810722499
 C          2.5913492203       -0.7157907889       -2.0549978898
 N          1.9245789563        0.3454587549       -2.6353319126
 C         -3.5414619887        0.3656916116       -0.6546070813
 C         -4.8027129064       -0.4072340971       -0.8977938170
 C         -5.3048786737       -0.5879599134       -2.1707289743
 C         -6.5135076660       -1.2389533543       -2.3819733177
 C         -7.2476194395       -1.7075292749       -1.2937420324
 C         -6.7674353974       -1.5493530603       -0.0156704871
 C         -5.5349671289       -0.9132724774        0.1974207256
 N         -5.0123457359       -0.7981563538        1.4534272016
 N          3.8959117919        0.2087927112        1.1526388005
 H          3.3395182100        4.5197860492       -1.7410940738
 H          5.3293529142        3.0869092645       -2.0438190141
 H          5.5896885037        1.0424085214       -0.6837154173
 H          1.6080238524        3.8894327608       -0.1063089538
 H          1.8301412320        2.2098978718        2.4928721372
 H          0.5865382861        2.0715439784        1.2609090549
 H          3.9976389028       -2.1207077098        2.3265684838
 H          2.1175959166       -3.1900732382        3.5569932969
 H         -0.1072891703       -2.2126315155        3.4647263642
 H         -1.4159894322       -0.6186934897        4.1695595142
 H         -3.8310225522       -0.8474531867        3.8284593300
 H         -1.8867825617        2.7178452944        0.0217645773
 H         -0.8186401437        3.8737983319       -1.8728109720
 H          1.0112043810        2.7596950589       -3.1120349262
 H         -0.1506607193       -1.7641163254       -1.5876269720
 H          0.1895441370       -1.6040496268        0.1340293772
 H          2.0596264607       -3.2103230227        0.1547427880
 H          4.4102302490       -3.6905151573       -0.4170235003
 H          5.5944190561       -2.2666235217       -2.0519618269
 H          4.4281623515       -0.3572032742       -3.0937340422
 H          2.4741068502        0.9485594948       -3.2302966212
 H         -3.7936458671        1.4335767715       -0.6946302573
 H         -2.8327709845        0.1882329377       -1.4663229832
 H         -4.7440721717       -0.2116584562       -3.0146723044
 H         -6.8855735962       -1.3765463149       -3.3849366452
 H         -8.1919569279       -2.2047569147       -1.4562605646
 H         -7.3221055232       -1.9215091628        0.8343844252
 H         -5.5494570900       -1.1710366552        2.2247686588
 H          4.7063424759       -0.3695244056        0.9870038103
