121
 energy: -189.835700163058 gnorm: 0.000065370929 xtb: 6.7.1 (edcfbbe)
C          -13.26612887047457       -4.02776519644029       -3.05314971871786
C          -12.95111648729996       -2.67985707862616       -2.99732010875683
C          -12.11060489335877       -2.19993172295261       -2.00930904276141
C          -11.57038491592452       -3.07517427672350       -1.07157044788898
N          -10.71348166208652       -2.59384156616068       -0.06837158468317
C          -10.84518888669838       -2.82431718130786        1.28641613996194
C          -11.83924384629483       -3.50631871722767        1.97442879481633
C          -11.74645297687868       -3.56648639072608        3.35191224519198
C          -10.69694817589452       -2.95792704319226        4.03789372145926
C           -9.71693687709943       -2.25943666180358        3.36077766175643
C           -9.78882504334840       -2.18391953579362        1.97566507177972
C           -8.98028025491780       -1.54219612326121        0.97624046447587
C           -7.81842118455204       -0.78700818132988        1.03302946759411
C           -7.26191461824337       -0.30575346780112       -0.14510061297193
C           -6.03392508229636        0.50500752206550       -0.11488845001427
C           -4.97454030322817        0.14381749926721        0.72923487042775
C           -3.80497540225169        0.87357757032963        0.79536726531646
C           -3.69881001545263        2.00805768712251        0.00323814062380
C           -4.74415235301516        2.37557095076709       -0.87346906726263
C           -5.90828725240414        1.62426016407487       -0.92796269406362
C           -4.29598281837422        3.54641269486252       -1.57633577091145
C           -4.87719886295653        4.36479380508066       -2.53607188528421
C           -4.16236726160261        5.45062364916590       -3.00239330428705
C           -2.89001659881143        5.73370041006294       -2.51081358272645
C           -2.29333827045778        4.93428551786528       -1.55435846105032
C           -2.99455137022607        3.82693142571847       -1.10045906640926
N           -2.64556605004127        2.89291777815390       -0.14268272078420
C           -1.43758044963790        2.84476390570482        0.56092593502065
C           -1.43380600479676        2.70237195814300        1.94794168713293
C           -0.23665849594715        2.64232655773938        2.63030975872188
C            0.98324503752891        2.74450179481337        1.96639155903148
C            2.23028608880178        2.73261642078122        2.75091160748983
C            3.27941814618778        3.61418894642549        2.48472262185545
C            4.42438718770952        3.53817128356114        3.25678112476293
C            4.48733433985379        2.59921851576547        4.27540563691484
C            3.37839888183032        1.79412903648760        4.48536783605360
N            2.28291894137810        1.85591419503043        3.75181087496919
C            0.97670831718333        2.85937479779359        0.56925816872114
N            2.17869701634058        2.87147017336017       -0.15767838683037
C            2.59099557774914        3.86142989836828       -1.02681720428006
C            1.95569244078395        5.04162177475234       -1.38373044709306
C            2.60589321907180        5.88617083126556       -2.26333764746424
C            3.86503947751969        5.57368164840053       -2.77179348311185
C            4.51266719378545        4.41093252051598       -2.40226706469402
C            3.87849855300313        3.54596722929647       -1.51963773397943
C            4.25120620493698        2.29701714912388       -0.91369150803144
C            5.37752486102796        1.49284847719859       -1.00514301145370
C            5.43229056847560        0.31537803169236       -0.27075856075404
C            6.62031423415660       -0.55140010241600       -0.33149578386529
C            7.25092477179063       -0.79646577913556       -1.55960308548213
C            8.35979202237941       -1.61055957245861       -1.66625013926683
C            8.85150457558642       -2.19810758071017       -0.50883307475451
C            8.24730973291208       -1.94277300573482        0.74396886096731
C            7.12953872511961       -1.12600074397189        0.82612742740605
C            9.02194656626427       -2.65581863293720        1.72155195923522
C            8.91852360053169       -2.80791595917211        3.09838549965270
C            9.83950344014601       -3.60596803332989        3.74768791051953
C           10.84722248844085       -4.25838522827208        3.03966428352148
C           10.97067285790596       -4.12297210298440        1.66992158656170
C           10.06120202586020       -3.30463081199938        1.01437846292272
N            9.94592058009282       -3.01944695028705       -0.33146870876404
C           10.78601920172657       -3.50157619449084       -1.34861841853135
C           10.24172448282945       -4.13490178078635       -2.46215857870136
C           11.07240973740606       -4.60856800834678       -3.46137994347671
C           12.44616695825879       -4.46379974008823       -3.35532829729925
C           12.98916095337134       -3.83614827424615       -2.24611180792154
C           12.16580660893498       -3.35052833991306       -1.24644352370656
C            4.34098592918927       -0.05204572001803        0.52963589663627
C            3.20669694389277        0.72656482917834        0.62838379912169
C            3.17492187196319        1.91865299727778       -0.08035330423399
C           -0.22695733010193        2.91018964662930       -0.12112149904836
C           -7.87353944369000       -0.60558293286775       -1.37080552969025
C           -9.02499035705139       -1.36114736181956       -1.45203563577077
C           -9.59085473030193       -1.81673882342737       -0.26924241766333
C          -11.88187769800739       -4.43039992312898       -1.13312275304694
C          -12.73181990141997       -4.89935999881090       -2.11821406303913
H          -13.92674624877556       -4.39795002610639       -3.82278674200531
H          -13.36792519066682       -1.99613325186422       -3.72228595497824
H          -11.87835290645717       -1.14689075834839       -1.95037386270795
H          -12.66443015047166       -3.96813235282533        1.45329303951208
H          -12.50680649095974       -4.09355866275778        3.90998256528643
H          -10.65859818513720       -3.02944156712596        5.11515835514377
H           -8.91231365568406       -1.77496229216346        3.89383844344882
H           -7.36218250869157       -0.56247508463074        1.98558807952737
H           -5.06976171216023       -0.74975356165370        1.32861060051432
H           -2.99435928268603        0.55663797427021        1.43397667355230
H           -6.71349018848270        1.91695027412990       -1.58488332594297
H           -5.87036018141333        4.15523772299080       -2.90434074994446
H           -4.59523812613814        6.09728242526563       -3.75149441116295
H           -2.35943629201379        6.59845711930517       -2.88196924923165
H           -1.31618115056387        5.17473453701298       -1.16609665172411
H           -2.36959843142333        2.65568267521553        2.48271095947662
H           -0.22580102928404        2.53524302932170        3.70395099655718
H            3.19381256132785        4.35223317281741        1.70215939124278
H            5.25404989152777        4.20397815130288        3.06755747137964
H            5.36525812458765        2.50196948944184        4.89454665373251
H            3.36080757553765        1.05802213979715        5.27965313603342
H            0.98930947683959        5.29873777726617       -0.97775327258641
H            2.12981207890081        6.80965421019173       -2.55913971265643
H            4.34117490963946        6.25806759528219       -3.45850101399790
H            5.49507280968368        4.17793969565494       -2.78499777792105
H            6.20999889083107        1.79149160293305       -1.62443048440417
H            6.84183352107014       -0.34718695878989       -2.45272955163514
H            8.83109671613254       -1.77875781778573       -2.62301713996894
H            6.67421075680318       -0.92031988535866        1.78365509430165
H            8.12855175956566       -2.31420923783468        3.64488962232486
H            9.77746187027408       -3.73592086158243        4.81837820307599
H           11.54471973279251       -4.88790599782846        3.57310759921255
H           11.74462247838715       -4.64568138789681        1.12823677235087
H            9.17147978324296       -4.26267668868604       -2.53139670148536
H           10.64462259068244       -5.09980961459764       -4.32305050257336
H           13.09172320135231       -4.83898783593689       -4.13524954467649
H           14.05934778680583       -3.71647171342435       -2.16139819938344
H           12.58369067467046       -2.84407973835723       -0.38890843563639
H            4.38331470596683       -0.98722143379936        1.06870678278311
H            2.37411420268071        0.41468006053556        1.24072782890103
H           -0.21724403842429        2.96584293542348       -1.19948320657228
H           -7.41190806558422       -0.25327277608996       -2.28172648975471
H           -9.46310690993484       -1.59805648654283       -2.41009103984269
H          -11.44731356023275       -5.10933396546696       -0.41432792726614
H          -12.97067541083458       -5.95193817994303       -2.16033553043685
