121
 energy: -189.835723970044 gnorm: 0.000049891893 xtb: 6.7.1 (edcfbbe)
C          -13.46210448525956       -3.48186459215376       -3.40896376421971
C          -13.12575676911910       -2.16786601407690       -3.12679464398844
C          -12.23493090956071       -1.87886090625995       -2.10905675647528
C          -11.66536411506096       -2.91186067232922       -1.37014796453252
N          -10.75589039816154       -2.62280334219208       -0.33992960747912
C          -10.82768000435711       -3.08749744780301        0.95817164303047
C          -11.79106543864020       -3.88503739259786        1.56014637015166
C          -11.63392687219145       -4.18848545706120        2.89918332841976
C          -10.55108933636084       -3.70667745494437        3.63246626565767
C           -9.60200562742460       -2.89353476618920        3.04531565154565
C           -9.73783143191381       -2.57484252532121        1.70020165403573
C           -8.97097494788301       -1.76711760426722        0.79262308756247
C           -7.80167318238665       -1.03378320537069        0.92720870659784
C           -7.29066447530194       -0.35959285745209       -0.17466525589188
C           -6.05647449049798        0.43340207788182       -0.05847032354346
C           -4.97308471257338       -0.05830646566134        0.68337399810502
C           -3.79761599702857        0.65015786039025        0.82721720532391
C           -3.70805575468847        1.89463559573973        0.21975944600437
C           -4.77663466355384        2.39641240133222       -0.55656354412610
C           -5.94806555761441        1.66640533678438       -0.68934141159716
C           -4.34088025603488        3.66087709429133       -1.08295227619390
C           -4.94314876364598        4.61812944612136       -1.88883851185127
C           -4.23462072653883        5.76150605966271       -2.20227832931416
C           -2.94737417405599        5.96303337149867       -1.70926252805932
C           -2.32932699829884        5.02475546574968       -0.90450892353345
C           -3.02446225442034        3.86172358489930       -0.60781424749607
N           -2.65378356165633        2.78922803635389        0.18177840577402
C           -1.43027228142537        2.63362043582922        0.84217401740760
C           -1.39885613398750        2.28607110224946        2.19200343291556
C           -0.18837308154941        2.12231327056952        2.83249653656291
C            1.01758348554026        2.31907075081953        2.16493845049515
C            2.28062967405836        2.18575377276035        2.91217826936655
C            3.32587576383209        3.09933295120323        2.76616602233651
C            4.48780077264449        2.90203406031485        3.48987114855546
C            4.57092579543696        1.81285748139175        4.34427157618410
C            3.46407898253119        0.98481761201663        4.44973645785490
N            2.35253540156771        1.16191552935066        3.76037607473708
C            0.98328356640173        2.63947033328607        0.80036902157785
N            2.17227338313698        2.75332182898277        0.06121276277246
C            2.58677474572530        3.86274545236360       -0.64832987150688
C            1.94711499115819        5.07892802519896       -0.83678627405353
C            2.59977763568980        6.04560430409306       -1.57798318251496
C            3.86565929454718        5.81708951735019       -2.11357487453527
C            4.51748875723868        4.61641846250603       -1.91009569320844
C            3.88031917507462        3.62851435517972       -1.17024377968862
C            4.25519707258242        2.30567770144779       -0.75101150989062
C            5.38999694516855        1.53118823299985       -0.94111289333114
C            5.44472410721778        0.25988567314155       -0.38486774097752
C            6.64917911247548       -0.57205588675777       -0.53758071673918
C            7.31428780042740       -0.63282285378618       -1.77022756796646
C            8.44809600749884       -1.39699603881239       -1.95557048030697
C            8.93013136248948       -2.12260375204025       -0.87482062831846
C            8.28717672164871       -2.05803080283813        0.38309594865844
C            7.14513676739723       -1.28812883478171        0.54443261910313
C            9.05984607373072       -2.87493338356835        1.27729289873067
C            8.92764605152691       -3.21524013495745        2.61753522142004
C            9.85906974460184       -4.06548995621248        3.17986639192165
C           10.90490025723805       -4.58594204230417        2.41970975520097
C           11.05798691221118       -4.26172026806281        1.08511674219858
C           10.13765538266137       -3.38996431455970        0.51961953238574
N           10.04655520755034       -2.92805871470015       -0.77810711006566
C           10.94383865655207       -3.21820640349969       -1.81919608058302
C           10.47030031403423       -3.70099117401464       -3.03566411195519
C           11.35727897549608       -3.98105770362483       -4.05923729736067
C           12.71749363361482       -3.79228546014933       -3.87644958740173
C           13.19040525282296       -3.31655522922403       -2.66429228458640
C           12.31009085795142       -3.02374257477705       -1.63851394478606
C            4.34280784901906       -0.23105086641748        0.33020449751923
C            3.20092538599830        0.51756981169286        0.52494772794247
C            3.17250385711197        1.80320787395104        0.00440271975872
C           -0.23403623053479        2.79615269300914        0.15094341363841
C           -7.95590783609801       -0.44612787684785       -1.40623817123752
C           -9.11840699993819       -1.17205996660162       -1.56421968923605
C           -9.63757141085068       -1.82220407359788       -0.45307322932388
C          -11.99996311638922       -4.23183877201591       -1.65819936739589
C          -12.89953123190669       -4.51061267392327       -2.67110786244759
H          -14.16075915990758       -3.70366142145148       -4.20178755298970
H          -13.56521518594439       -1.36222357237067       -3.69653621884600
H          -11.98481394380853       -0.85508508261085       -1.87294163951691
H          -12.64191410645985       -4.25049787764095        1.00494645907755
H          -12.36914435688639       -4.81028073593697        3.38940420473501
H          -10.46192406841909       -3.96880737858076        4.67668398139836
H           -8.77183534209546       -2.50724867108724        3.61791904720350
H           -7.30446611663145       -0.97536085356034        1.88388076388034
H           -5.05461595382148       -1.03518721186864        1.13699322873192
H           -2.97045075691523        0.23629310003023        1.38384733072167
H           -6.77159825662472        2.06159633451246       -1.26476850266596
H           -5.94752697412619        4.46990187828552       -2.25646066005507
H           -4.68406610629909        6.51687272563907       -2.83014105234434
H           -2.42219845462802        6.87395936009971       -1.95728967473648
H           -1.34035653469680        5.20031463132874       -0.51117692386102
H           -2.32389255302489        2.16201997211818        2.73314508665717
H           -0.15582232563212        1.85669608020506        3.87779873914348
H            3.22480960349206        3.95217939950697        2.11269722848733
H            5.31518237660074        3.58961918812745        3.38959106581658
H            5.46294646621850        1.61785719711423        4.91852612090924
H            3.46186503540758        0.13148961505161        5.11673194447981
H            0.97522728044020        5.26967714660633       -0.40813488108432
H            2.11995059092492        6.99949069170503       -1.74177867400704
H            4.34400887135809        6.59665875911412       -2.68813099567418
H            5.50483086782710        4.44647457069181       -2.31283869463915
H            6.22961098676984        1.92260544416655       -1.49568873651668
H            6.91400280884251       -0.07543069234949       -2.60450845284736
H            8.94690428070859       -1.42022531979369       -2.91283660385016
H            6.66143183872696       -1.22498742275246        1.50808416719025
H            8.10876702292951       -2.82354633071683        3.20272527008468
H            9.77503210971810       -4.34134420501548        4.22097110123962
H           11.60972203341597       -5.26078793308036        2.88355254757863
H           11.86242591631539       -4.68242458138873        0.50059645463140
H            9.41088409112356       -3.86505802100371       -3.16687490903103
H           10.98425956944252       -4.35595860163001       -5.00106424543135
H           13.40714941045800       -4.01592679458174       -4.67657873358684
H           14.24976652053559       -3.16420835034817       -2.51834798646109
H           12.67249582928282       -2.63407151353524       -0.69868045320599
H            4.38505457672150       -1.23577639185186        0.72480253435371
H            2.36037857081675        0.11355908935506        1.06881736602283
H           -0.24689786632538        3.01165808338497       -0.90707391152634
H           -7.52871515132247        0.05270938577350       -2.26393358998991
H           -9.59924681388335       -1.24130839698955       -2.52856531313739
H          -11.54339941469082       -5.03193419527580       -1.09443570038693
H          -13.15510122132608       -5.53697714845627       -2.89037504857523
