121
 energy: -189.743563194595 gnorm: 0.000034114415 xtb: 6.7.1 (edcfbbe)
C          -13.49029017913761       -3.35917736132298       -3.38651519805919
C          -13.13321023508652       -2.05985829155759       -3.06428779781110
C          -12.20798775231588       -1.81803524259027       -2.06505867297598
C          -11.62638006285408       -2.88454386432149       -1.38561576329810
N          -10.68242469375200       -2.64481713707730       -0.37314325060465
C          -10.72395469212396       -3.16111477966806        0.90835309704029
C          -11.68070041952116       -3.97039916184706        1.50426746122159
C          -11.48959116984939       -4.32901494553611        2.82591791006343
C          -10.38053944285631       -3.88998836610895        3.54561519319395
C           -9.43675443957131       -3.06471191639113        2.96411656634098
C           -9.60735347346412       -2.69122780209902        1.63805976183768
C           -8.85695177992097       -1.85505841146910        0.74001678391795
C           -7.67966872356538       -1.13931409492348        0.87013124514948
C           -7.19663574036589       -0.41393173316707       -0.21781501003021
C           -5.96741380516503        0.37170822330738       -0.09705775625955
C           -4.88423807318349       -0.11746185436489        0.65792913851147
C           -3.71700854702285        0.59671994124690        0.81481168049037
C           -3.62699956181191        1.85120535156257        0.21934032028059
C           -4.69254477044652        2.34502188020079       -0.58072807315369
C           -5.85269060770447        1.60793853708563       -0.73170324846043
C           -4.25814727064757        3.61309029961528       -1.09552332090854
C           -4.84630931847237        4.56414293192935       -1.91790870314698
C           -4.14384830926930        5.72067775084826       -2.20248887444478
C           -2.87838229216786        5.94252755466048       -1.66276000709183
C           -2.27249627791385        5.00666607320366       -0.84347551092073
C           -2.95639491527018        3.82991552619003       -0.57919401836857
N           -2.59089437149415        2.75654924369691        0.21671175034020
C           -1.38981927239736        2.62862154126353        0.90752653970455
C           -1.37161266767466        2.18379521547694        2.25562799449736
C           -0.19536643577125        2.06749208932057        2.92642118260691
C            1.06056738596324        2.39968239145468        2.33692524911509
C            2.21840285324860        2.42887447809112        3.15246807036633
C            3.41010819007232        3.14651029153477        2.84410687371309
C            4.48976862791313        3.07696866369955        3.67978228820379
C            4.41296057810985        2.31076171872192        4.85327054133358
C            3.19596092710055        1.69901922610622        5.12563101503593
N            2.15403773634611        1.74810031783152        4.33740059300004
C            1.02815749253509        2.73175499772670        0.93273413466485
N            2.21374877060816        2.82857895872929        0.18881072984755
C            2.57855775236147        3.87863010545497       -0.63034924664789
C            1.94039920785884        5.09180747075911       -0.84448326384525
C            2.53849860688477        5.99708511188268       -1.70125206212668
C            3.75025548469323        5.71066162466391       -2.32658558481720
C            4.40657367184195        4.51573947327182       -2.09486968969231
C            3.82486762784799        3.59213102875756       -1.23803820328368
C            4.22100308395254        2.29655094226585       -0.75577524794073
C            5.32781926197988        1.49709961059051       -0.97980446488772
C            5.41923536132922        0.26371986540687       -0.33898160872856
C            6.59789562002266       -0.58822393563218       -0.53207812740053
C            7.20408646504894       -0.68390386174239       -1.79515525520220
C            8.31697229074367       -1.46591791751807       -2.01910868968305
C            8.84401954827872       -2.17538553011895       -0.94692362283320
C            8.26185380273527       -2.07761221154511        0.33967566706066
C            7.13868565554107       -1.29262678164371        0.54020218217276
C            9.06881838947830       -2.88639227788922        1.21267366478868
C            8.99847334128021       -3.19853801693807        2.56372250902448
C            9.94821311684101       -4.04905362080309        3.09646203896174
C           10.95015642816838       -4.59555156899733        2.29731638271272
C           11.04084225240234       -4.29933789955643        0.94999573792156
C           10.10265109972541       -3.42843125335472        0.41413525458565
N            9.95284454518716       -2.98986583477644       -0.88726384815246
C           10.79839190017315       -3.30889312054373       -1.96330099296494
C           10.26490815609620       -3.81567100056153       -3.14459960952737
C           11.10149680429423       -4.12372643634809       -4.20208212040070
C           12.46959492146456       -3.93760023007790       -4.08788549864580
C           13.00164098258331       -3.43694772080972       -2.91067565804684
C           12.17239735255523       -3.11788228659143       -1.85075348330627
C            4.37471387058763       -0.15632246637135        0.50188347607524
C            3.25918259768023        0.61885721454195        0.73111225875300
C            3.19315923552063        1.86403033501139        0.11742742342396
C           -0.16901965634994        2.87356823227683        0.26916342743633
C           -7.90234924859268       -0.44508575472261       -1.43314145716798
C           -9.07009420558371       -1.15971183241229       -1.58722848627138
C           -9.56262921155425       -1.85354314450153       -0.48759041284806
C          -11.98188364114343       -4.18975052559153       -1.71323528276557
C          -12.91449329025773       -4.42106146370162       -2.70798081363509
H          -14.21549732998915       -3.54403168081494       -4.16470348345111
H          -13.58296815915386       -1.22928825711946       -3.58799958435659
H          -11.94180408527360       -0.80643599254825       -1.79673711986180
H          -12.55136095532042       -4.30302519602128        0.95970493561513
H          -12.21855205143665       -4.96094262883507        3.31193288446250
H          -10.26511203597573       -4.19392072284084        4.57563703178845
H           -8.58587290824698       -2.71223435786325        3.52758757653059
H           -7.15650778684517       -1.12222308011151        1.81394160063186
H           -4.95974285373422       -1.09995240081711        1.09888443507056
H           -2.88886831237945        0.18286835902752        1.36947886897494
H           -6.67148497932480        2.00136851912362       -1.31458822166368
H           -5.83558876502303        4.40454209575512       -2.31966275397626
H           -4.58374249060340        6.47148310947983       -2.84227908193831
H           -2.36179764226863        6.86485406588375       -1.88358964865147
H           -1.30246601215611        5.19552261947803       -0.41218422424316
H           -2.30870542550838        1.98671107879255        2.75401124756035
H           -0.17618557642679        1.75679763596231        3.95950105435602
H            3.43619752614955        3.79871283497919        1.98562548210812
H            5.39352487573429        3.62603690701828        3.45120577908809
H            5.24877205474367        2.21846250745586        5.52762096831976
H            3.05887250155254        1.12281084403508        6.03505741461958
H            1.01388623354518        5.32694791515178       -0.34404658007646
H            2.05878439125538        6.94706274732852       -1.88556505685209
H            4.18621200119297        6.44088719640879       -2.99226205510385
H            5.35586149231162        4.30530159193443       -2.56419012517412
H            6.12488689841341        1.84100813644344       -1.62139052275437
H            6.76991295701142       -0.14216592833472       -2.62216982941812
H            8.76754990193392       -1.51681418266100       -2.99872752875950
H            6.70703403376202       -1.20157829018980        1.52562867084579
H            8.21385165111400       -2.78616046194302        3.18055061619117
H            9.91246225676556       -4.30272448768806        4.14581753286866
H           11.66985195024518       -5.26885602528612        2.73959189624023
H           11.81138352336739       -4.73969942877805        0.33539223393562
H            9.19983478387928       -3.97682515891749       -3.22179822147039
H           10.68303642303563       -4.51783472412570       -5.11644931126745
H           13.11996133579863       -4.18267275454312       -4.91408961188907
H           14.06717492754037       -3.28621166708658       -2.81872263634849
H           12.58017918149184       -2.70927358204126       -0.93798483322451
H            4.43845570680223       -1.13069365262375        0.96328005156158
H            2.46347115651937        0.27199914080506        1.37251764752969
H           -0.16181703996804        3.09502928135386       -0.78893450604782
H           -7.49747002998131        0.08426334949369       -2.28265403289070
H           -9.57852920885747       -1.18879168086659       -2.53910765547252
H          -11.51494588479742       -5.01486591937809       -1.19619144374676
H          -13.18634197392590       -5.43569195922963       -2.95918452925047
