  121
       -189.75952840
 C        -13.4283393170       -3.4459813003       -3.4739509897
 C        -13.0702534843       -2.1381161698       -3.1920914101
 C        -12.1905717748       -1.8625293735       -2.1618033626
 C        -11.6525371912       -2.9030278693       -1.4097835415
 N        -10.7544702518       -2.6269591391       -0.3692998824
 C        -10.8446448742       -3.0966868318        0.9257979966
 C        -11.8197439329       -3.8906743593        1.5125519517
 C        -11.6828855704       -4.1957897045        2.8531653060
 C        -10.6085550471       -3.7200564708        3.6018918786
 C         -9.6476461884       -2.9108875244        3.0295072387
 C         -9.7636824053       -2.5895887411        1.6836718652
 C         -8.9839528534       -1.7790442889        0.7902672440
 C         -7.8167837750       -1.0469473878        0.9440035499
 C         -7.2941003084       -0.3648249653       -0.1469486098
 C         -6.0639983065        0.4297525458       -0.0134616299
 C         -4.9887220876       -0.0603319245        0.7403145042
 C         -3.8139846502        0.6473533007        0.8922873138
 C         -3.7183097055        1.8896767215        0.2820195797
 C         -4.7820481613        2.3927413661       -0.5000651542
 C         -5.9514720006        1.6626860006       -0.6429379892
 C         -4.3427999707        3.6568685325       -1.0227236236
 C         -4.9410357890        4.6178428125       -1.8263303925
 C         -4.2299251426        5.7610746377       -2.1328604887
 C         -2.9445299669        5.9591559640       -1.6345358839
 C         -2.3301212897        5.0171527832       -0.8319608301
 C         -3.0281100568        3.8543460300       -0.5421936647
 N         -2.6632833212        2.7815266318        0.2473715552
 C         -1.4330008469        2.6188742147        0.8903569194
 C         -1.3808265103        2.2644430773        2.2373634934
 C         -0.1600027934        2.1047994185        2.8591527833
 C          1.0334805172        2.3093534407        2.1734224108
 C          2.3106340944        2.1827682832        2.8959082131
 C          3.3547053127        3.0910386269        2.7123150496
 C          4.5390239188        2.8862471960        3.3955446188
 C          4.6435016447        1.7988789198        4.2491991210
 C          3.5332901381        0.9825568559        4.3999752443
 N          2.4016941524        1.1650094079        3.7476271680
 C          0.9781372795        2.6265324231        0.8087429449
 N          2.1537778488        2.7351229704        0.0523849812
 C          2.5500238168        3.8332636095       -0.6820132905
 C          1.8982016755        5.0399817876       -0.8871056253
 C          2.5352653102        5.9974421394       -1.6530632394
 C          3.7972011813        5.7695249163       -2.1970913330
 C          4.4616910255        4.5791520912       -1.9764569897
 C          3.8412105604        3.6014172729       -1.2108003281
 C          4.2339570206        2.2925742372       -0.7668225712
 C          5.3750530198        1.5269556218       -0.9517761763
 C          5.4495859898        0.2705065589       -0.3658795801
 C          6.6579091126       -0.5539811013       -0.5159891330
 C          7.3145254487       -0.6236612502       -1.7522158368
 C          8.4487774802       -1.3864842261       -1.9391470612
 C          8.9387344083       -2.1020351584       -0.8558563417
 C          8.3061235977       -2.0253598927        0.4061322740
 C          7.1635945046       -1.2576881111        0.5692697843
 C          9.0874734004       -2.8309686955        1.3024125020
 C          8.9656085565       -3.1563395317        2.6467098633
 C          9.9031174340       -3.9977005864        3.2113477071
 C         10.9433352693       -4.5250370423        2.4490542591
 C         11.0852749735       -4.2166412028        1.1097378711
 C         10.1598677933       -3.3522915219        0.5422372375
 N         10.0568260702       -2.9048608964       -0.7595607914
 C         10.9371324192       -3.2127444135       -1.8062614113
 C         10.4433831840       -3.6878067087       -3.0179480969
 C         11.3146237079       -3.9851944661       -4.0493352500
 C         12.6796491965       -3.8221881843       -3.8800479703
 C         13.1728437850       -3.3537613656       -2.6735713069
 C         12.3086386147       -3.0441350319       -1.6396730857
 C          4.3615982246       -0.2154064494        0.3731729591
 C          3.2121806058        0.5226764978        0.5593981320
 C          3.1639849788        1.7950267949        0.0086357546
 C         -0.2489959667        2.7842666999        0.1798840850
 C         -7.9425475547       -0.4448606542       -1.3873947189
 C         -9.1013700511       -1.1714700124       -1.5647882848
 C         -9.6347405890       -1.8265257160       -0.4637625776
 C        -12.0096203611       -4.2171744723       -1.6975495298
 C        -12.8983902756       -4.4820985885       -2.7229969915
 H        -14.1174901398       -3.6572441152       -4.2774084725
 H        -13.4836434444       -1.3265837319       -3.7724127963
 H        -11.9265376869       -0.8428872647       -1.9232411733
 H        -12.6655916003       -4.2492098843        0.9454630601
 H        -12.4273752597       -4.8145180807        3.3321183026
 H        -10.5360291394       -3.9832786433        4.6466114570
 H         -8.8239493873       -2.5283343950        3.6133639030
 H         -7.3313293114       -0.9943445981        1.9067381504
 H         -5.0750912180       -1.0362110078        1.1944848235
 H         -2.9911068681        0.2342488214        1.4556251237
 H         -6.7700374726        2.0576445759       -1.2250687816
 H         -5.9443998901        4.4722061548       -2.1969898645
 H         -4.6759945503        6.5197295610       -2.7582957630
 H         -2.4178507332        6.8704476170       -1.8765404902
 H         -1.3434201307        5.1909774274       -0.4324438305
 H         -2.2980766829        2.1344924128        2.7901623044
 H         -0.1086460845        1.8364319654        3.9027025570
 H          3.2374737593        3.9427788017        2.0603306543
 H          5.3686359215        3.5657100599        3.2632856680
 H          5.5551033694        1.5978865723        4.7895630317
 H          3.5473465672        0.1344147187        5.0726020655
 H          0.9294868734        5.2320291566       -0.4523888302
 H          2.0458969640        6.9437250617       -1.8304043267
 H          4.2622675809        6.5417130356       -2.7914629252
 H          5.4465520774        4.4097732599       -2.3849225419
 H          6.2042045313        1.9151971592       -1.5236616552
 H          6.9069003810       -0.0754812971       -2.5886887074
 H          8.9421137936       -1.4151906897       -2.8990798885
 H          6.6876689426       -1.1873658977        1.5358088452
 H          8.1499846489       -2.7596578075        3.2324410896
 H          9.8285648775       -4.2613339117        4.2558285541
 H         11.6528356957       -5.1929948766        2.9147098958
 H         11.8842509978       -4.6448615715        0.5233931929
 H          9.3801473240       -3.8337732518       -3.1377621689
 H         10.9258603211       -4.3539176483       -4.9869481176
 H         13.3570089425       -4.0590467313       -4.6863950965
 H         14.2359391354       -3.2211483184       -2.5383040791
 H         12.6870964814       -2.6585461702       -0.7047143059
 H          4.4202030719       -1.2093715589        0.7909672039
 H          2.3816473445        0.1208958615        1.1188045200
 H         -0.2810110623        3.0009904283       -0.8771340600
 H         -7.5043488853        0.0591283725       -2.2361539172
 H         -9.5679674400       -1.2380957372       -2.5361984631
 H        -11.5759651695       -5.0236047594       -1.1249452454
 H        -13.1702140435       -5.5038343124       -2.9431419232
