121
 energy: -189.749132709330 gnorm: 0.000042462537 xtb: 6.7.1 (edcfbbe)
C           -9.31123719326281       -1.31977659763370        0.31131539950350
C           -9.31453414447041       -2.40676172104217        1.17031018283378
C           -8.28928844132061       -3.33406156854716        1.12579284007275
C           -7.25303460204234       -3.17988690291121        0.20936267523671
N           -6.21606259899735       -4.12564514143035        0.15244956453623
C           -6.37738466467019       -5.49195379561020        0.02917337436710
C           -7.54182252557472       -6.23608366452844       -0.09821321163805
C           -7.42047245186056       -7.60666974467730       -0.23108106451459
C           -6.17365776225717       -8.22835314444650       -0.24676526726274
C           -5.01022046425986       -7.49035165205210       -0.14387412440620
C           -5.10657742217534       -6.11177864828193       -0.00886174655591
C           -4.13576833393053       -5.05738339629485        0.10404267300520
C           -2.75110024034377       -5.04067903688165        0.14010120007415
C           -2.08600900462762       -3.82499827664087        0.26949017523616
C           -0.62007398453349       -3.77142499736363        0.29468676108987
C            0.05403563680054       -2.71822370536519       -0.34801211662209
C            1.42665570771711       -2.61025131896536       -0.33349390788136
C            2.15700967313199       -3.57221411847821        0.35390552876844
C            1.50055682816973       -4.66758933494326        0.96984710034963
C            0.11875050593522       -4.75936802359749        0.94032126599449
C            2.53487179395130       -5.49412322746830        1.52638437734536
C            2.52660203014697       -6.68717917642362        2.23599168746958
C            3.73152752751487       -7.21659315939651        2.65756226626747
C            4.93334695866204       -6.56132629652865        2.39441240447454
C            4.96737309460242       -5.37383354259242        1.68702168545515
C            3.76407864884546       -4.85218487243262        1.23250900112654
N            3.51886850867668       -3.69429961445322        0.51867685616394
C            4.47079264694184       -2.76797870128532        0.08528283837674
C            5.64852919601640       -3.17549191285578       -0.57992574247606
C            6.55951368469936       -2.25729412740682       -1.01276561290756
C            6.37014972841345       -0.85739136638977       -0.83868161055050
C            7.18833250960902        0.12728242684695       -1.43782581327312
C            8.48528951523724       -0.12853370514556       -1.97233748231975
C            9.23232217514763        0.89852603371791       -2.47200462777006
C            8.72020425606970        2.21090916462584       -2.46450062339815
C            7.44891407133911        2.38702013614838       -1.94411377508894
N            6.71981774145670        1.40715539809336       -1.47809405313609
C            5.20050964773369       -0.47120045927313       -0.09212450227235
N            4.97233927788061        0.87226703856784        0.23226217822035
C            5.76213218929843        1.66271390363119        1.04831719969193
C            6.98939148050567        1.37793521031224        1.62516293779416
C            7.57077892440166        2.35156650047636        2.41777600542468
C            6.94152183520678        3.57345251636466        2.64321596194661
C            5.70449087631326        3.85231236816461        2.08963788009770
C            5.10271419923094        2.89105125572334        1.29103945519657
C            3.84388055078520        2.82212487388935        0.59484379869593
C            2.76434455799137        3.67910555595768        0.47656181769760
C            1.65491122975420        3.28097522268039       -0.26960341045358
C            0.46462557790750        4.13094413023420       -0.36390827296420
C            0.58214401504420        5.52591835526947       -0.47286077902194
C           -0.51927072220391        6.34937098520110       -0.57199538812966
C           -1.77945780017793        5.76331401328397       -0.55664359070832
C           -1.92112835635472        4.36201911482033       -0.41426407398402
C           -0.80192062604687        3.55257353403014       -0.32890099002161
C           -3.33339285860308        4.09672608043040       -0.38158060826028
C           -4.08494188126522        2.93432320950566       -0.27349759926714
C           -5.46251413119263        3.03365823007796       -0.29661926241067
C           -6.08953898451390        4.26925230348636       -0.44230308319388
C           -5.36220614445711        5.43993694361097       -0.55223536679682
C           -3.97828727128256        5.34926631581939       -0.50414618057062
N           -3.02588074540123        6.34537653229247       -0.60942551457299
C           -3.28648484762565        7.71827261971845       -0.75560210524035
C           -4.14100489995891        8.36563645494704        0.13186486958717
C           -4.39883043308706        9.71596883099556       -0.02029684598623
C           -3.80295328520666       10.42975470723850       -1.04732978439266
C           -2.94797298098807        9.78707928236302       -1.92790969770133
C           -2.69131339964358        8.43509622145021       -1.78960014936312
C            1.67259491419102        2.04043231554968       -0.93149015528515
C            2.74218469027794        1.17926022902968       -0.83762851527070
C            3.81780010427232        1.55479060116794       -0.04094230487640
C            4.27901756453148       -1.40413585892833        0.32301224467535
C           -2.83379923076527       -2.64136363362786        0.38563347044551
C           -4.21192218759078       -2.63523499953415        0.35842238266871
C           -4.86706039032178       -3.84949695672390        0.19673894384589
C           -7.25101121873421       -2.08816439869994       -0.65408299782007
C           -8.27762271248046       -1.16300052903791       -0.59771246635615
H          -10.11294856271505       -0.59756216002114        0.34963269661348
H          -10.11606105609726       -2.53100557643206        1.88355336753761
H           -8.27866748019805       -4.17328312124716        1.80547875615236
H           -8.51165692036369       -5.76191177707700       -0.10341922653770
H           -8.31219147346316       -8.20871375026682       -0.32832663533124
H           -6.12076293789054       -9.30230936409809       -0.35019901572096
H           -4.04394323023072       -7.97168721057344       -0.17177520192890
H           -2.19531710576897       -5.96108951360708        0.04416433356304
H           -0.52229649729203       -1.98645183190394       -0.89402412035528
H            1.92095846321535       -1.80750374112555       -0.85655737223151
H           -0.37976875643838       -5.57799962760783        1.43718412349965
H            1.59474382649804       -7.18628220904594        2.45675935977391
H            3.74624245301506       -8.14503026181303        3.20948595042366
H            5.85788385982291       -6.98753267151561        2.75570176470175
H            5.90133852136824       -4.86412656534880        1.50644363658474
H            5.80134214696746       -4.22588591175229       -0.77882274526419
H            7.43082941713566       -2.60136977419677       -1.54812951937159
H            8.88887730578447       -1.12799271569981       -1.92574543495651
H           10.22216024388786        0.71333715667311       -2.86653446761991
H            9.27654691824503        3.03800869237052       -2.87355442116548
H            6.97964039262791        3.36457441815810       -1.93019325354343
H            7.47828879948202        0.43099933674890        1.45266382733136
H            8.53118840450232        2.15888504062652        2.87308999124764
H            7.42733212839186        4.30994016251470        3.26625200969959
H            5.21507098611325        4.79635910116497        2.27705870497138
H            2.76636437566135        4.63111588412647        0.98520029350484
H            1.56840544781925        5.96431837944099       -0.50484058142818
H           -0.40193938475509        7.41941237338626       -0.65286885591836
H           -0.91183909577997        2.48642653856277       -0.20236050330029
H           -3.59903371604535        1.97512160097002       -0.17550691363055
H           -6.06557276613900        2.14253113572525       -0.20612030450919
H           -7.16846390803840        4.31365348092866       -0.47244014869603
H           -5.85716554218013        6.39067086547683       -0.68055551535977
H           -4.58775840886948        7.80978879206367        0.94282011391670
H           -5.06259319887655       10.21390596479689        0.67106784942453
H           -4.00392015548780       11.48444744571782       -1.16100494055795
H           -2.48417946138378       10.33886046919234       -2.73229663851522
H           -2.04099962690259        7.92616031374298       -2.48557314887777
H            0.83173153585357        1.77022548480511       -1.55240349055262
H            2.75650808801525        0.24381471002282       -1.37527717887745
H            3.42118876511159       -1.07975381407288        0.89546382157612
H           -2.30926634619140       -1.70848658110775        0.53002555984772
H           -4.76323702276161       -1.71396592493027        0.47321580980939
H           -6.45346274531458       -1.98003094623909       -1.37424456213939
H           -8.27565962529126       -0.32174563888596       -1.27512913544194
