  78
  -130.173442974200       0.254507988341284      !
 O          1.1133576040       -2.5955660282       -2.2758476308
 C          0.2292363664       -2.8014479611       -1.4657510453
 C         -0.8606983455       -1.8377326229       -1.2074675864
 C         -2.1062887797       -2.2527393947       -0.7329217810
 C         -3.0880508659       -1.3275241116       -0.4580606903
 C         -2.8477632880        0.0340057279       -0.6438726381
 N         -3.8375034540        0.9699694891       -0.3132607489
 C         -4.3656818915        1.0098539499        0.9838419001
 C         -3.8672687013        0.2234761915        2.0160955094
 C         -4.4088165509        0.2982196019        3.2900019303
 C         -5.4474598331        1.1668182245        3.5597124224
 C         -5.9311259195        1.9847487925        2.5503187661
 C         -5.3917716445        1.9171465489        1.2782744037
 O         -5.8982545803        2.7876690421        0.3455799112
 C         -5.3829549557        2.7256496276       -0.9237131874
 C         -5.9300247664        3.5825432243       -1.8615752440
 C         -5.4915560998        3.5542580549       -3.1765473341
 C         -4.5190473654        2.6480378405       -3.5483363622
 C         -3.9663556235        1.7881080728       -2.6117538425
 C         -4.3669986353        1.8289892680       -1.2816295764
 C         -1.6175089346        0.4489727078       -1.1568697156
 C         -0.6426395024       -0.4796346713       -1.4450768076
 C          0.1444226943       -4.0701884962       -0.6843709273
 C          0.3097036476       -5.2801892403       -1.3472350467
 C          0.1612542283       -6.4790717914       -0.6714381226
 C         -0.1585593057       -6.4788214980        0.6766331296
 C         -0.3074448910       -5.2796953064        1.3519032235
 C         -0.1424194940       -4.0699323276        0.6885583944
 C         -0.2277971222       -2.8007905933        1.4692475597
 O         -1.1119654100       -2.5949310991        2.2793412682
 C          0.8613309222       -1.8364847719        1.2098308230
 C          0.6420622924       -0.4781862771        1.4451033925
 C          1.6162270715        0.4507812352        1.1556033258
 C          2.8471605701        0.0359722007        0.6441305512
 N          3.8362201742        0.9721139892        0.3121263282
 C          4.3660921755        1.0087892548       -0.9844278421
 C          3.8689974549        0.2199210781       -2.0154173120
 C          4.4123627932        0.2913615556       -3.2887495248
 C          5.4517563874        1.1588285455       -3.5590977064
 C          5.9339601714        1.9794092256       -2.5511597200
 C          5.3925435946        1.9153802547       -1.2798094553
 O          5.8976001925        2.7884331910       -0.3487225071
 C          5.3808652015        2.7293717992        0.9201256792
 C          5.9267602781        3.5886549292        1.8564959759
 C          5.4866664700        3.5636887908        3.1709854452
 C          4.5140550966        2.6580468784        3.5439270578
 C          3.9625939123        1.7956832776        2.6088494662
 C          4.3645998639        1.8334843723        1.2790421467
 C          3.0887302445       -1.3257145068        0.4610048183
 C          2.1074936428       -2.2512453863        0.7365635363
 H         -2.3141505366       -3.3027463501       -0.5983265234
 H         -4.0523080654       -1.6487495984       -0.0952891235
 H         -3.0504853103       -0.4555569678        1.8340036851
 H         -4.0036745738       -0.3316004826        4.0664869610
 H         -5.8765764911        1.2226411068        4.5474669648
 H         -6.7271949916        2.6896220935        2.7292541329
 H         -6.7056557404        4.2596166437       -1.5414044448
 H         -5.9214380842        4.2282248983       -3.9001918394
 H         -4.1831891385        2.5956934624       -4.5724403154
 H         -3.2254691132        1.0696697699       -2.9233151553
 H         -1.4315215360        1.5019787993       -1.3043449524
 H          0.3187122042       -0.1687032598       -1.8242956184
 H          0.5428281314       -5.2660374668       -2.4015231487
 H          0.2879582631       -7.4123277006       -1.1988239772
 H         -0.2856104025       -7.4118919907        1.2042654295
 H         -0.5403684202       -5.2651678858        2.4062325510
 H         -0.3194621645       -0.1674496064        1.8240285819
 H          1.4293206740        1.5038423124        1.3014807309
 H          3.0511035774       -0.4576921381       -1.8331425578
 H          4.0079876389       -0.3401576574       -4.0642591765
 H          5.8818742260        1.2125304712       -4.5465336620
 H          6.7301356147        2.6839717283       -2.7308395825
 H          6.7024475085        4.2652559159        1.5354523638
 H          5.9158496227        4.2392777526        3.8935385982
 H          4.1769872723        2.6082026045        4.5677555790
 H          3.2210037556        1.0783332783        2.9212548416
 H          4.0531049034       -1.6467078975        0.0983442638
 H          2.3162557697       -3.3013077891        0.6038228303
  78
  -130.173405334800       0.244570205065200      !
 O          1.1720664340       -2.9144096802       -2.2938296419
 C          0.2851653787       -3.0633196064       -1.4730095854
 C         -0.7507486582       -2.0394669954       -1.2297011592
 C         -2.0109110616       -2.3664251137       -0.7268849459
 C         -2.9281319031       -1.3748666398       -0.4558881939
 C         -2.6041756167       -0.0351065468       -0.6706867068
 N         -3.5146304170        0.9754125490       -0.3331977941
 C         -3.9792753190        1.1084086852        0.9817447130
 C         -3.5778796965        0.2614735372        2.0082420604
 C         -4.0483884987        0.4367925834        3.3004478174
 C         -4.9205621719        1.4655366706        3.5944952271
 C         -5.3070589244        2.3381365985        2.5889571988
 C         -4.8365998641        2.1708034390        1.2988965473
 O         -5.2355023470        3.1024868832        0.3726869143
 C         -4.8060875384        2.9344711740       -0.9187005711
 C         -5.2639490575        3.8443570567       -1.8545487019
 C         -4.9027132989        3.7195608845       -3.1873241642
 C         -4.1010434366        2.6658602896       -3.5783294871
 C         -3.6386147041        1.7522422872       -2.6439026506
 C         -3.9580169054        1.8856387447       -1.2978068864
 C         -1.3644672048        0.2897070969       -1.2245156533
 C         -0.4571687749       -0.7038235096       -1.5114088434
 C          0.1602961702       -4.3181167127       -0.6752132558
 C          0.3353491305       -5.5298474698       -1.3352787512
 C          0.1703126161       -6.7305345266       -0.6682492165
 C         -0.1757287782       -6.7328961521        0.6735024788
 C         -0.3346829937       -5.5345445782        1.3462090035
 C         -0.1531667941       -4.3206464717        0.6919605289
 C         -0.2705564080       -3.0692228228        1.4959469187
 O         -1.1552921675       -2.9197180162        2.3190840911
 C          0.7686191716       -2.0483071951        1.2538311952
 C          0.4802454575       -0.7129959961        1.5427392505
 C          1.3874082760        0.2795120258        1.2519187942
 C          2.6206084087       -0.0460703145        0.6842091382
 N          3.5269479406        0.9643677925        0.3349094617
 C          3.9607224876        1.1078468496       -0.9894565643
 C          3.5480912631        0.2593421153       -2.0100807558
 C          3.9842913102        0.4478075608       -3.3124261499
 C          4.8335064229        1.4909834498       -3.6223027606
 C          5.2332596741        2.3630448147       -2.6215054223
 C          4.7971482527        2.1823637108       -1.3212192522
 O          5.2083894763        3.1130958062       -0.3993707233
 C          4.8091005648        2.9353620384        0.9002595435
 C          5.2770782952        3.8459074014        1.8303424837
 C          4.9446807642        3.7121433790        3.1698148334
 C          4.1612123692        2.6494721949        3.5729642619
 C          3.6887348255        1.7349542884        2.6444178647
 C          3.9798671950        1.8765491220        1.2928732790
 C          2.9412305123       -1.3858398835        0.4649109934
 C          2.0249001794       -2.3765662448        0.7421675216
 H         -2.2816681424       -3.3983974683       -0.5670412787
 H         -3.9055070111       -1.6281105809       -0.0750198947
 H         -2.8915822139       -0.5444105684        1.8080657489
 H         -3.7206087302       -0.2429368964        4.0715120725
 H         -5.2941728501        1.6018416945        4.5967864599
 H         -5.9705941230        3.1651199290        2.7851791800
 H         -5.9072640108        4.6415145114       -1.5181760833
 H         -5.2601780614        4.4360769119       -3.9093001520
 H         -3.8303893103        2.5400739391       -4.6152329054
 H         -3.0309215163        0.9222597863       -2.9668465621
 H         -1.1185176973        1.3248787122       -1.4059974650
 H          0.5096681050       -0.4616881236       -1.9240593185
 H          0.5910678710       -5.5124333417       -2.3843314608
 H          0.3056756337       -7.6622526856       -1.1963132097
 H         -0.3162452641       -7.6663196076        1.1970081423
 H         -0.5902462629       -5.5205935513        2.3953448500
 H         -0.4834523877       -0.4706479506        1.9626642818
 H          1.1456334185        1.3146524010        1.4393977810
 H          2.8798506239       -0.5584453018       -1.7975726510
 H          3.6474909977       -0.2328054048       -4.0787875207
 H          5.1793185957        1.6387285552       -4.6329237686
 H          5.8806585491        3.1999043858       -2.8293508399
 H          5.9054819718        4.6508529546        1.4844410479
 H          5.3108242963        4.4289819889        3.8872672903
 H          3.9133959520        2.5169309187        4.6146895173
 H          3.0951168764        0.8980568905        2.9755410321
 H          3.9147055057       -1.6398107342        0.0746487160
 H          2.2927449419       -3.4086949996        0.5785684162
  78
  -130.173270201100       0.211982690067926      !
 O          1.1389122218       -2.6938135597       -2.2812607651
 C          0.2518335455       -2.8824810425       -1.4697980449
 C         -0.8211892089       -1.8990868227       -1.2167953753
 C         -2.0724484445       -2.2858782047       -0.7337924602
 C         -3.0332122791       -1.3386783058       -0.4584280296
 C         -2.7650109052        0.0166310772       -0.6514937757
 N         -3.7295201973        0.9767446660       -0.3161720625
 C         -4.2401057982        1.0419201404        0.9868816692
 C         -3.7649137342        0.2373902538        2.0160525155
 C         -4.2869645266        0.3396030016        3.2961882771
 C         -5.2832543296        1.2535045767        3.5753064782
 C         -5.7433992561        2.0880104252        2.5685110660
 C         -5.2228790062        1.9932854112        1.2903652455
 O         -5.7029946402        2.8822573124        0.3610571105
 C         -5.2096006126        2.7919026962       -0.9151947245
 C         -5.7338916604        3.6656127453       -1.8505826362
 C         -5.3150348339        3.6122282420       -3.1711852943
 C         -4.3862436973        2.6643012128       -3.5509467394
 C         -3.8568018332        1.7870987901       -2.6169340793
 C         -4.2366707640        1.8521668659       -1.2816750355
 C         -1.5306924657        0.4028353483       -1.1770850385
 C         -0.5775915133       -0.5473320450       -1.4663180198
 C          0.1525930632       -4.1479952819       -0.6850900150
 C          0.3245383139       -5.3570819515       -1.3488050195
 C          0.1700124900       -6.5580415617       -0.6785865786
 C         -0.1622525082       -6.5615723459        0.6665214535
 C         -0.3179480810       -5.3641412546        1.3427869293
 C         -0.1470883805       -4.1515678432        0.6851779494
 C         -0.2465240239       -2.8897276164        1.4757787671
 O         -1.1326665509       -2.7050986158        2.2891500495
 C          0.8252003391       -1.9045311803        1.2242810029
 C          0.5794568061       -0.5529583747        1.4725025126
 C          1.5308705485        0.3984487471        1.1817322737
 C          2.7658916628        0.0135884130        0.6567233585
 N          3.7281273504        0.9746010165        0.3177547080
 C          4.2392967049        1.0346886631       -0.9854123542
 C          3.7663599166        0.2243940175       -2.0111260678
 C          4.2893890400        0.3214049626       -3.2912892503
 C          5.2846442053        1.2354351008       -3.5738964706
 C          5.7421432960        2.0758398120       -2.5708265178
 C          5.2203452665        1.9865902977       -1.2927907547
 O          5.6974533510        2.8815218014       -0.3676779963
 C          5.2033599257        2.7963402144        0.9086346076
 C          5.7245603831        3.6763223172        1.8398642779
 C          5.3052077444        3.6283975228        3.1604884778
 C          4.3791097674        2.6796415104        3.5445759819
 C          3.8526297474        1.7963684155        2.6147475882
 C          4.2327442465        1.8558713144        1.2792698599
 C          3.0368441342       -1.3416555146        0.4667694381
 C          2.0774397041       -2.2899992778        0.7427454467
 H         -2.3015241140       -3.3306398406       -0.5929980599
 H         -4.0020163782       -1.6379399009       -0.0891075880
 H         -2.9815120835       -0.4778832980        1.8268868038
 H         -3.9001610682       -0.3049447848        4.0699471797
 H         -5.6966973905        1.3318334306        4.5681764285
 H         -6.5055119260        2.8277428592        2.7544380982
 H         -6.4755485265        4.3766883635       -1.5237388688
 H         -5.7263860845        4.2997260666       -3.8928588521
 H         -4.0668920857        2.5928030094       -4.5791490554
 H         -3.1500212219        1.0372736162       -2.9338302113
 H         -1.3246327679        1.4507217166       -1.3338841089
 H          0.3864402638       -0.2585211269       -1.8558106923
 H          0.5675673913       -5.3395492568       -2.4008129915
 H          0.3021443408       -7.4896300516       -1.2075862043
 H         -0.2945499345       -7.4959538930        1.1905436764
 H         -0.5613185422       -5.3522015204        2.3948042809
 H         -0.3852071530       -0.2651113522        1.8611167327
 H          1.3224137075        1.4462549312        1.3358182279
 H          2.9838901561       -0.4912759218       -1.8195778393
 H          3.9047310666       -0.3280421121       -4.0620414584
 H          5.6994777877        1.3090953356       -4.5665547548
 H          6.5028321627        2.8162913863       -2.7597021022
 H          6.4647317270        4.3875372825        1.5099358610
 H          5.7145006801        4.3204525946        3.8789633189
 H          4.0597995912        2.6120884808        4.5730530175
 H          3.1480754598        1.0459737591        2.9352087114
 H          4.0064418753       -1.6398806644        0.0987223071
 H          2.3081349588       -3.3346382031        0.6034965373
  78
  -130.172768281700       0.124633334266320      !
 O          1.1783439377       -3.2633886526       -2.1013059723
 C          0.3043855286       -3.2993785519       -1.2539703409
 C         -0.7325364753       -2.2549605302       -1.1398398543
 C         -2.0022925262       -2.5244806312       -0.6282794303
 C         -2.9238995961       -1.5094882894       -0.4906934271
 C         -2.5930743983       -0.2023130655       -0.8482842484
 N         -3.5068585995        0.8402959254       -0.6470567303
 C         -4.0106950137        1.1120215232        0.6321198315
 C         -3.6424377894        0.3793487719        1.7545146556
 C         -4.1511202443        0.6904010957        3.0060799193
 C         -5.0297448078        1.7434282522        3.1630607876
 C         -5.3833797198        2.5041184354        2.0594938341
 C         -4.8741013026        2.2015579558        0.8092758256
 O         -5.2423786387        3.0300274748       -0.2215385578
 C         -4.7651268288        2.7340679796       -1.4721485842
 C         -5.1822212291        3.5482783680       -2.5097220683
 C         -4.7734635217        3.2914739501       -3.8093383003
 C         -3.9661585016        2.2010272456       -4.0642859885
 C         -3.5446641100        1.3829124525       -3.0276339139
 C         -3.9103524437        1.6503665500       -1.7134723576
 C         -1.3412623048        0.0588480635       -1.4093078108
 C         -0.4300970603       -0.9601019191       -1.5647198674
 C          0.2066643797       -4.4274866795       -0.2839546400
 C          0.4466597365       -5.7139360322       -0.7564776062
 C          0.3236205507       -6.8105112141        0.0772113264
 C         -0.0443847869       -6.6315236460        1.4010976288
 C         -0.2690221746       -5.3562176090        1.8876906341
 C         -0.1310393092       -4.2433994868        1.0643900466
 C         -0.3308510825       -2.8994377807        1.6823056230
 O         -1.2623481295       -2.6845039588        2.4368361880
 C          0.6865859683       -1.8718691120        1.3785899767
 C          0.3600533582       -0.5301345125        1.5848106093
 C          1.2619943569        0.4668730003        1.2910758905
 C          2.5258727782        0.1419081265        0.7960865151
 N          3.4445285913        1.1517049609        0.4739764785
 C          3.1348837816        2.1225810951       -0.4848914853
 C          1.9178603673        2.1461499142       -1.1551530408
 C          1.6467593989        3.1182588638       -2.1056845533
 C          2.5902101270        4.0780164691       -2.4124047001
 C          3.8228783189        4.0477638762       -1.7787797631
 C          4.1000322570        3.0773315406       -0.8326713855
 O          5.3568236347        3.0911034668       -0.2837560778
 C          5.6422667144        2.1436307794        0.6663112864
 C          6.9008549339        2.1909835037        1.2379906492
 C          7.2511488740        1.2936385142        2.2350542514
 C          6.3248773193        0.3677064707        2.6714562378
 C          5.0633297114        0.3148104738        2.0994622943
 C          4.7104936308        1.1778602891        1.0688185938
 C          2.8719221272       -1.1997557071        0.6324494235
 C          1.9645312882       -2.1959320345        0.9212246331
 H         -2.2759956983       -3.5324931647       -0.3584487570
 H         -3.9099048401       -1.7196888592       -0.1061085225
 H         -2.9527606172       -0.4428953292        1.6622179561
 H         -3.8470059781        0.0973605560        3.8545167319
 H         -5.4323940167        1.9854638064        4.1336522183
 H         -6.0509217726        3.3463384592        2.1465452394
 H         -5.8330464441        4.3759661708       -2.2777012072
 H         -5.0996861706        3.9339803462       -4.6114211133
 H         -3.6600655181        1.9710039602       -5.0730704696
 H         -2.9346320978        0.5212197631       -3.2458025501
 H         -1.0942979599        1.0682808448       -1.7007783933
 H          0.5478729193       -0.7734505484       -1.9814710197
 H          0.7209742564       -5.8364190187       -1.7937361517
 H          0.5098270714       -7.8021351743       -0.3063208499
 H         -0.1521286253       -7.4833546479        2.0552559102
 H         -0.5452757465       -5.2019670063        2.9202354127
 H         -0.6162659709       -0.2886950052        1.9748620600
 H          1.0042142531        1.5024248473        1.4531131351
 H          1.1805984161        1.3919494663       -0.9403897047
 H          0.6913359285        3.1139740249       -2.6087097487
 H          2.3824176577        4.8390976760       -3.1473779977
 H          4.5922842645        4.7663272826       -2.0112256947
 H          7.5903359161        2.9435704438        0.8905732192
 H          8.2363821262        1.3337611711        2.6712425037
 H          6.5718665518       -0.3210260561        3.4645141195
 H          4.3432472101       -0.3996086216        2.4648850496
 H          3.8535214495       -1.4513620314        0.2611940987
 H          2.2531199666       -3.2274424022        0.7951666668
  78
  -130.172612493100       0.105691176007067      !
 O          0.3961761981       -4.0677453002       -1.5061730333
 C         -0.2443309746       -3.7742394808       -0.5146513573
 C         -1.1039623890       -2.5730914195       -0.4647389406
 C         -1.3620193528       -1.8958906811       -1.6590481887
 C         -2.0817824375       -0.7237980585       -1.6655983998
 C         -2.5273088810       -0.1700421333       -0.4637742715
 N         -3.1733923844        1.0736097538       -0.4545072109
 C         -4.2967906113        1.2882161305       -1.2607255229
 C         -4.9804925553        0.2376615224       -1.8610483190
 C         -6.1012175483        0.4737310569       -2.6417011812
 C         -6.5661617314        1.7613240990       -2.8222948138
 C         -5.9180431399        2.8164551895       -2.1989140141
 C         -4.7993736337        2.5854177184       -1.4184000500
 O         -4.2293041071        3.6713461685       -0.8067406339
 C         -3.1546092763        3.4441379952        0.0155002082
 C         -2.6042506150        4.5520954769        0.6346202935
 C         -1.4917679165        4.4200341377        1.4494060786
 C         -0.9299665669        3.1728675671        1.6313484859
 C         -1.4809966062        2.0598247067        1.0175996073
 C         -2.6075610745        2.1700536001        0.2125196656
 C         -2.3061957108       -0.8619421314        0.7276082074
 C         -1.6126244102       -2.0532443911        0.7263601019
 C         -0.2120227373       -4.6321810076        0.7063832465
 C         -1.4000933218       -5.1445572373        1.2181511524
 C         -1.3834707853       -6.0304738169        2.2809698209
 C         -0.1769359446       -6.4223381214        2.8390851372
 C          1.0102558210       -5.9288184839        2.3300926967
 C          1.0056431492       -5.0273425044        1.2708183412
 C          2.3103671855       -4.5117461109        0.7640482119
 O          3.2570383046       -5.2520230416        0.5874680073
 C          2.4047411646       -3.0482011362        0.5492834187
 C          1.5988193627       -2.1472633030        1.2439111966
 C          1.7452823260       -0.7894795173        1.0509065836
 C          2.7143445930       -0.3050137568        0.1760609802
 N          2.9019314141        1.0856665344        0.0438593681
 C          1.9185575592        1.8851208818       -0.5392102630
 C          0.8359891903        1.3404052213       -1.2164413886
 C         -0.1050944474        2.1647820363       -1.8148283443
 C          0.0140339309        3.5368483057       -1.7400648925
 C          1.1002181702        4.0939437002       -1.0822961710
 C          2.0522104455        3.2793217166       -0.4997482902
 O          3.1237189024        3.8947090949        0.0978027882
 C          4.1476327613        3.0916947063        0.5388420603
 C          5.2789257524        3.7252263924        1.0180681800
 C          6.3396592881        2.9828467496        1.5161727689
 C          6.2532968903        1.6058868999        1.5408581194
 C          5.1226640686        0.9646941847        1.0569319558
 C          4.0621309825        1.6927339551        0.5332392670
 C          3.5214600055       -1.2015770680       -0.5215329044
 C          3.3669507365       -2.5585607293       -0.3333461414
 H         -0.9698659959       -2.3086959189       -2.5762097135
 H         -2.2820968021       -0.2134716562       -2.5955855691
 H         -4.6370409203       -0.7741572752       -1.7113708554
 H         -6.6086447566       -0.3602500561       -3.1012265977
 H         -7.4349284184        1.9508051211       -3.4323341871
 H         -6.2673725217        3.8311633437       -2.3024865672
 H         -3.0588998432        5.5129133184        0.4538035336
 H         -1.0667657379        5.2895042089        1.9243860199
 H         -0.0517641809        3.0554527190        2.2475010663
 H         -1.0107456019        1.0992913634        1.1452416741
 H         -2.6951458675       -0.4603587955        1.6515005349
 H         -1.4584836023       -2.5760768864        1.6574601736
 H         -2.3376630003       -4.8615955104        0.7618043723
 H         -2.3124318166       -6.4220506202        2.6673087797
 H         -0.1615565077       -7.1175643843        3.6645688869
 H          1.9589619717       -6.2308666165        2.7477286020
 H          0.8891694806       -2.5104733691        1.9704166010
 H          1.1299433673       -0.0886906383        1.5954861673
 H          0.7349069736        0.2677218517       -1.2819273662
 H         -0.9289321276        1.7212980434       -2.3501187682
 H         -0.7226449221        4.1787331161       -2.1961532335
 H          1.2310494344        5.1619192585       -1.0181655861
 H          5.3062497937        4.8029170116        1.0008199121
 H          7.2180884311        3.4855478649        1.8881652097
 H          7.0631275520        1.0141656850        1.9387105250
 H          5.0631252941       -0.1111758007        1.0972568403
 H          4.2663360411       -0.8234881588       -1.2054471902
 H          3.9817927359       -3.2656711909       -0.8680417722
  78
  -130.172055376900       5.861460625220469E-002 !
 O          1.1537378809       -3.3675461639       -2.1425942592
 C          0.2947252824       -3.3913564288       -1.2791641675
 C         -0.7206653678       -2.3281747739       -1.1496757987
 C         -1.9846699645       -2.5655030711       -0.6093564385
 C         -2.8855579727       -1.5311535139       -0.4715132363
 C         -2.5400656178       -0.2382186106       -0.8642754772
 N         -3.4266091978        0.8295217145       -0.6701942994
 C         -3.8684457662        1.1701547725        0.6150628930
 C         -3.5209830182        0.4405414954        1.7457690157
 C         -3.9633061996        0.8217289365        3.0031485262
 C         -4.7553210103        1.9417963178        3.1568332695
 C         -5.0889750406        2.6966262268        2.0430704658
 C         -4.6449905538        2.3241989500        0.7868651448
 O         -4.9863322169        3.1501213987       -0.2553718535
 C         -4.5709156433        2.7886261040       -1.5107938771
 C         -4.9580507301        3.6043735770       -2.5588290979
 C         -4.6068648726        3.2849082536       -3.8614895525
 C         -3.8888233464        2.1319087103       -4.1085190769
 C         -3.4974785645        1.3121960042       -3.0613941352
 C         -3.8038508312        1.6401493936       -1.7457550420
 C         -1.2967156719       -0.0114276879       -1.4577835571
 C         -0.4038375328       -1.0467242886       -1.6046483923
 C          0.2016389915       -4.5235936673       -0.3138851061
 C          0.4284497724       -5.8064633089       -0.8038797107
 C          0.3191327086       -6.9118947047        0.0193963266
 C         -0.0207965787       -6.7459663346        1.3525073932
 C         -0.2331350821       -5.4753443761        1.8557169437
 C         -0.1098150792       -4.3528975689        1.0422383739
 C         -0.3107822748       -3.0210426434        1.6852961253
 O         -1.2301695690       -2.8366965472        2.4635005152
 C          0.6790196761       -1.9672093798        1.3833250033
 C          0.3363745113       -0.6425858369        1.6628885781
 C          1.2050666072        0.3853378054        1.3786763742
 C          2.4513019873        0.1110557652        0.8124217769
 N          3.3296626063        1.1564045793        0.4936986715
 C          2.9345932156        2.1822537105       -0.3728029091
 C          1.6840528306        2.2043905342       -0.9783442039
 C          1.3241828100        3.2339945648       -1.8339153142
 C          2.2116441653        4.2543335601       -2.1111285599
 C          3.4779272422        4.2263261839       -1.5478126077
 C          3.8433083676        3.1985481716       -0.6967100651
 O          5.1276561475        3.2203497813       -0.2173020902
 C          5.4978608951        2.2185279351        0.6436586582
 C          6.7841955961        2.2746499393        1.1490031634
 C          7.2213042186        1.3244053281        2.0587553084
 C          6.3530159252        0.3363954659        2.4777514385
 C          5.0639870019        0.2745853113        1.9716985641
 C          4.6241496394        1.1912613249        1.0241077993
 C          2.8154457136       -1.2149401593        0.5738870467
 C          1.9430324706       -2.2430336567        0.8602626692
 H         -2.2714605514       -3.5636473558       -0.3173966792
 H         -3.8670540227       -1.7171795831       -0.0636674148
 H         -2.8983202099       -0.4332223521        1.6535007115
 H         -3.6775203232        0.2299152877        3.8588737669
 H         -5.1062865917        2.2391747674        4.1321069611
 H         -5.6891231520        3.5884727291        2.1266510980
 H         -5.5394348020        4.4837457200       -2.3326261805
 H         -4.9089527648        3.9288411096       -4.6718565239
 H         -3.6293760206        1.8547122428       -5.1185008491
 H         -2.9559077859        0.4037741576       -3.2708070975
 H         -1.0444491470        0.9849514872       -1.7859479756
 H          0.5697416289       -0.8832200346       -2.0408520669
 H          0.6813440004       -5.9184059200       -1.8477546651
 H          0.4930131667       -7.8997994769       -0.3791967362
 H         -0.1170901327       -7.6041011961        2.0002102708
 H         -0.4888312710       -5.3312121704        2.8949763951
 H         -0.6258871397       -0.4399890323        2.1059143752
 H          0.9346218541        1.4061106515        1.6019825591
 H          0.9906577943        1.4040469380       -0.7864916266
 H          0.3429858924        3.2296178588       -2.2850791528
 H          1.9338903173        5.0614165201       -2.7699187811
 H          4.2055004874        4.9924541186       -1.7621559173
 H          7.4257938053        3.0763358176        0.8201940578
 H          8.2274443817        1.3722716799        2.4433550609
 H          6.6672133272       -0.3947851439        3.2063532689
 H          4.3906396038       -0.4891836038        2.3258558660
 H          3.7828295229       -1.4294431868        0.1464261114
 H          2.2485178890       -3.2613675152        0.6798407883
