79
 energy: -123.353074585461 gnorm: 0.000052670287 xtb: 6.7.1 (edcfbbe)
C           10.09230376155649       -0.20550893008731        0.13265333927966
C            9.42163140487927        0.04662114237931       -1.05342132660237
C            8.03883911694121        0.04170516750705       -1.08480414841061
C            7.32432431280738       -0.22048699800610        0.07805025167089
N            5.90289396315678       -0.22753769875787        0.05076436013021
C            5.20153958751709        0.83848967159298        0.59016208061448
C            5.86867646507441        1.93369732451669        1.12909985839787
C            5.16647048422281        2.96894004132382        1.72168567291691
C            3.78647115006599        2.90746982005500        1.80180408648068
C            3.10642979692667        1.83852880537468        1.24830159197473
C            3.79108173978709        0.81094347913664        0.60066357205030
N            3.11344987962633       -0.24486317485080        0.00732192421821
C            1.70638854001780       -0.26022475127869       -0.00120262508464
C            0.99364223531679       -1.32375700020478        0.59433162235191
C           -0.36600994236808       -1.31658442572438        0.61278946338051
C           -1.12029958112599       -0.24578981096655        0.03704189489340
C           -2.51513376529282       -0.32080734761113        0.12722151700396
N           -3.14585549017536       -1.46805847346140        0.45126580787720
C           -4.44523239294281       -1.23967009999011        0.32512114253636
C           -5.50943702896038       -2.17483522169522        0.49578736702353
C           -5.24180265463858       -3.51293457202431        0.78971255739266
C           -6.27032474579242       -4.42042753134605        0.91014078233845
C           -7.57910030298694       -3.98943122744710        0.72611951342767
C           -7.85440590992453       -2.66840052435535        0.44201085825505
C           -6.83509591198478       -1.71263379849359        0.32734065747921
C           -7.09248336928453       -0.30649799938248        0.07303026096097
C           -8.39337633104358        0.19735987524269        0.01043090388294
C           -8.65843040802588        1.53650017869483       -0.17959798500603
C           -7.60424664681619        2.44386964303559       -0.29239981378024
C           -6.31187353499186        1.99644708179240       -0.24748018177111
C           -6.01068640903424        0.62410511688987       -0.09064398787943
C           -4.70270512068835        0.11240061458488       -0.03976727955998
N           -3.45755946244080        0.69126510913578       -0.16596123809214
C           -3.14698771734452        2.02429589720629       -0.44887564482882
C           -2.40792358420369        2.77452707930691        0.46786212174083
C           -2.07929732707778        4.08433405227381        0.17986100661716
C           -2.47922417116690        4.66058811377620       -1.01620215036603
C           -3.21269913219761        3.91684765153164       -1.92939396926740
C           -3.54610752067712        2.60558615850867       -1.65396912559700
C           -0.38029023274422        0.78288698675038       -0.62050720065040
C            0.98376331065221        0.77512572172459       -0.62188216582394
C            3.82276792973980       -1.28530613748246       -0.57619544360129
C            3.17052836158452       -2.31217351419404       -1.25750906256896
C            3.88003725930404       -3.36876881394103       -1.79748340213786
C            5.25711940662778       -3.41752637686110       -1.67014343178584
C            5.92859081802093       -2.38055129967649       -1.04570181330787
C            5.23223143666191       -1.29722491011458       -0.52011736165104
C            7.99518928958932       -0.47516364404161        1.26818383131385
C            9.37811541603213       -0.46517846231815        1.29139656088872
H           11.17138945929977       -0.19957897963734        0.15394890770997
H            9.97662062482345        0.25056798497087       -1.95663791290703
H            7.50556240401420        0.23736785120213       -2.00329513355163
H            6.94585287945827        1.97101635210125        1.08650064072665
H            5.70319787435255        3.80944637310796        2.13278479318365
H            3.23285086813544        3.69146968621909        2.29408820858807
H            2.03231133206860        1.79181694200383        1.32120753548860
H            1.54716527483384       -2.12252892511423        1.06732636968429
H           -0.92146043406295       -2.10791062693571        1.08843148465833
H           -4.21030412636993       -3.80571038277602        0.90996786659407
H           -6.06601520457005       -5.45624797224274        1.13764330054325
H           -8.39317019713312       -4.69598990939355        0.80653954364248
H           -8.88585938596431       -2.38485936561048        0.30383740244510
H           -9.23218694223940       -0.47074971794354        0.12566079800702
H           -9.67968991416696        1.88484302255972       -0.22278318809540
H           -7.80825235822226        3.49846449449353       -0.40846246124189
H           -5.50507151433988        2.70815697590656       -0.30915058861613
H           -2.09970292559616        2.31661500927074        1.39606610240562
H           -1.51133392372861        4.66210327595441        0.89424528413839
H           -2.21985067473828        5.68484754746897       -1.23755807000360
H           -3.52038031760606        4.36065094086948       -2.86484600529332
H           -4.11156012365521        2.01791634367139       -2.36259516540575
H           -0.89710950362207        1.54839533104819       -1.17438997725795
H            1.52932346447159        1.55019046990213       -1.14242851235174
H            2.09915224737942       -2.27482109985404       -1.36724566889898
H            3.35137352087346       -4.15327439154857       -2.31555597747059
H            5.81595078525495       -4.24923358863621       -2.06949640570051
H            7.00406878128061       -2.40743019414794       -0.96722087668825
H            7.42817495586562       -0.67647485858151        2.16495851356843
H            9.89920377679386       -0.66323068936065        2.21584991243527
