79
 energy: -123.353030612660 gnorm: 0.000063411446 xtb: 6.7.1 (edcfbbe)
C           10.08666786328076       -0.31123007740210        0.23240908016733
C            9.43865271465396       -0.18896884864733       -0.98630014011768
C            8.05663647829968       -0.18365032894168       -1.04154217291881
C            7.31967665038064       -0.30523924639359        0.13058156296931
N            5.89921323347079       -0.29970872906217        0.07980464493513
C            5.20292013100009        0.82058585886222        0.50392933771550
C            5.87569646044936        1.95768368834401        0.93942147341531
C            5.17863015303870        3.05142490879793        1.42273906742410
C            3.79768457997480        3.00857527721676        1.49842928004810
C            3.11231462555504        1.89716548642556        1.04420771053393
C            3.79217798121922        0.80711240877659        0.50190661771126
N            3.10980458479990       -0.29291562978419        0.00083117301941
C            1.70318105322601       -0.29862237500098       -0.01672711223051
C            0.97778411800934       -1.30700441319434        0.65528515884244
C           -0.38183774160350       -1.28446692841252        0.66948553672918
C           -1.12240142172069       -0.24808730761037        0.01902084074768
C           -2.51795866801291       -0.28880985629081        0.12168580336420
N           -3.17417696118323       -1.40189703707116        0.50623922355913
C           -4.46852555163027       -1.14574569909055        0.37816731297087
C           -5.55500722898675       -2.04446645038518        0.59718141482328
C           -5.31973053782337       -3.37607430716443        0.94369351586041
C           -6.37043498201232       -4.25074680987126        1.10776323541373
C           -7.66901846336814       -3.79376676954411        0.91457002811435
C           -7.91237913095123       -2.47845388403877        0.57921109157004
C           -6.86966881608956       -1.55499783885427        0.41984726307126
C           -7.09272645999755       -0.15382701474780        0.11122289442531
C           -8.38020324036879        0.38323713740059        0.04853206066858
C           -8.61167303823916        1.72011723387783       -0.19430542273138
C           -7.53516194836530        2.59162126672594       -0.36402507734787
C           -6.25486319918148        2.11049852335190       -0.31995159068097
C           -5.98876903841941        0.73847347020219       -0.10736048715973
C           -4.69430621563981        0.19411580733408       -0.04830048830330
N           -3.43579167499009        0.73237319318775       -0.21413148462855
C           -3.08663255755692        2.04280385886878       -0.55112914964305
C           -2.30384083414552        2.79813482712636        0.32442989191899
C           -1.93233105498260        4.08312324526114       -0.01763925647366
C           -2.33205797156612        4.62970786900805       -1.22757963990846
C           -3.10907361323322        3.88098815427692       -2.09983499808050
C           -3.48560482623528        2.59411190553647       -1.77031717817176
C           -0.37117502578208        0.71685833579863       -0.71761520585689
C            0.99247268455550        0.69169366799933       -0.71976218807303
C            3.81524611654593       -1.38752187289114       -0.47934616145756
C            3.16049628893213       -2.46311693933858       -1.07841460473422
C            3.86409030584119       -3.57278281812849       -1.50813882471506
C            5.23783207836880       -3.62764591200506       -1.35009168051222
C            5.91313634614017       -2.54628513623768       -0.81090670253659
C            5.22353165453297       -1.41031381098124       -0.40002759080575
C            7.96798040624748       -0.43008959969943        1.35359230603072
C            9.35030444284001       -0.43082460915453        1.40016805901327
H           11.16523993557148       -0.31311349578052        0.27211793408637
H           10.01082583891358       -0.09414134150497       -1.89681134768943
H            7.54114666399151       -0.08769585211706       -1.98566714925253
H            6.95341266803203        1.98209476111118        0.90228714441942
H            5.71979090685308        3.92376188467683        1.75391841189681
H            3.24738602382367        3.84046202285361        1.90906000462315
H            2.03740624240783        1.86696377946713        1.11329460563932
H            1.52168618691582       -2.07331510633370        1.18916893933358
H           -0.94662347550122       -2.03228295716148        1.20132791234271
H           -4.29520289487147       -3.69075335102591        1.06816794254308
H           -6.19114557213409       -5.28156246070903        1.37554094251835
H           -8.50031551103760       -4.47527749083202        1.02807971799282
H           -8.93705552359728       -2.17404512024589        0.43502270640143
H           -9.23473849554208       -0.25541652142309        0.20719093010240
H           -9.62355918592421        2.09511118818599       -0.23486702850383
H           -7.71219497020864        3.64553733787793       -0.52275953673484
H           -5.43000250016283        2.79599682758081       -0.42489831606987
H           -1.99673804357802        2.36383004089065        1.26427776178302
H           -1.33063559222357        4.66492121827608        0.66519625542907
H           -2.03872217590571        5.63451301040715       -1.49157861412185
H           -3.41674238285307        4.30133067112802       -3.04607619737452
H           -4.08375132318904        2.00214110199660       -2.44787571081360
H           -0.88045722489256        1.44139251712754       -1.33075239488452
H            1.54675830771942        1.41524125434146       -1.30159840285818
H            2.09182844076485       -2.42221799458250       -1.21099757928639
H            3.33353648107709       -4.39397565895653       -1.96364357747599
H            5.79147768835000       -4.49970801157310       -1.66070522588515
H            6.98653811870500       -2.57987943067731       -0.71010418380328
H            7.38399560617215       -0.52277968188637        2.25726563551311
H            9.85357631768724       -0.52763145525143        2.35028427649458
