79
 energy: -123.430907381933 gnorm: 0.000047799171 xtb: 6.7.1 (edcfbbe)
C           10.03378459254640        0.01055417993221        0.18967531785441
C            9.37972497848584       -0.10768950690190       -1.02557638298938
C            7.99924954686441       -0.17853983762297       -1.06846918753025
C            7.26505879642280       -0.13782969876137        0.11170101881930
N            5.85120866746267       -0.21424719304702        0.07191940353155
C            5.09046017217460        0.90936629503510        0.38828559648402
C            5.69396479384379        2.11677345356884        0.70805678438540
C            4.93523606892929        3.22363864767523        1.06431528117537
C            3.56250658093486        3.12509361543457        1.11090981326408
C            2.94300396688154        1.93187374300847        0.76293483530369
C            3.68577928269088        0.82822728398981        0.36996174536656
N            3.06824436850071       -0.36364992477203       -0.01387122673085
C            1.65888835988022       -0.43624390775348       -0.04872402799900
C            0.97217568898613       -1.27830560989278        0.82261751278274
C           -0.40602460994331       -1.31422592255963        0.80770407877712
C           -1.12842842250512       -0.50019916608543       -0.06529193732091
C           -2.58038242487060       -0.54116563308270       -0.00882050849473
N           -3.27053146388367       -1.63507465551109        0.18901659396635
C           -4.57705082538169       -1.26122381494716        0.17065845792448
C           -5.72357914840188       -2.09356690005081        0.29861227364147
C           -5.59953042474585       -3.47765255532042        0.45839181709607
C           -6.71806244064745       -4.26780775638532        0.54638326944465
C           -7.97901434437016       -3.67943890476643        0.47049543810921
C           -8.11235956814882       -2.31902138318809        0.31947764225591
C           -6.99350126172750       -1.47600479753420        0.23573635908634
C           -7.10031787827354       -0.03241706515045        0.11278161511543
C           -8.34325692812418        0.61625382525433        0.12883465922595
C           -8.45359215175685        1.98475123339902        0.05991907805732
C           -7.31048885260382        2.77445897247836       -0.01039662221406
C           -6.07380449089020        2.17879453293577       -0.03724162225840
C           -5.94057590672449        0.78336810954667        0.00085698906458
C           -4.68436367940088        0.11459848965969       -0.02736486001866
N           -3.38967056968469        0.56592110600322       -0.15294026406147
C           -2.91625977786570        1.87340122003994       -0.37541035570457
C           -2.08251617842412        2.46899618465606        0.56409932656038
C           -1.56994298614884        3.73074727104575        0.32333408439952
C           -1.88822129705764        4.40088990276712       -0.84604619062984
C           -2.72254261081602        3.80776689238143       -1.78002773010411
C           -3.23447699189742        2.54368189928134       -1.55284788317847
C           -0.43628530605661        0.30968759826213       -0.96488763994868
C            0.94276908100506        0.33968583710770       -0.95572990568936
C            3.83228857830259       -1.47987449021815       -0.36068047747273
C            3.23514376679589       -2.65160225320483       -0.80060112342544
C            3.99768371667681       -3.77003005346345       -1.11012223100600
C            5.36774447689492       -3.72342871143105       -0.97722769886269
C            5.98221975029185       -2.54541700144171       -0.57409676091478
C            5.23544020885886       -1.41119331935330       -0.29194637615561
C            7.92324773282366       -0.02229269892329        1.33105592987691
C            9.30364242968001        0.05475995747388        1.36590906449280
H           11.11147881387768        0.06812412072129        0.22003310504874
H            9.94645748594295       -0.13996741420037       -1.94432579806452
H            7.48057450268037       -0.26875558622816       -2.01161531435177
H            6.76935281938337        2.19753195907357        0.67976065270590
H            5.43099710673613        4.14997071185331        1.31037493976931
H            2.95898982593922        3.96852633006983        1.40933103888460
H            1.86685552544118        1.86521197956395        0.80060729198365
H            1.52887564861320       -1.89342520344529        1.51398233346503
H           -0.94860134078835       -1.95888033261552        1.48122972054924
H           -4.60461910820655       -3.89272762809468        0.50189844158211
H           -6.62757735596591       -5.33711865650816        0.66826269139247
H           -8.86275793678271       -4.29827436952915        0.53110468244100
H           -9.10857110540707       -1.90977492358702        0.26264773975253
H           -9.24904109843528        0.03703723559707        0.20715241685762
H           -9.42910679844878        2.44816748709286        0.07485116514710
H           -7.39375370441179        3.85089446210495       -0.03900254929404
H           -5.19006689808274        2.79610753972960       -0.07117969988129
H           -1.83979576901534        1.93725153360631        1.47223050757848
H           -0.92078809838132        4.19141452477282        1.05251254619341
H           -1.48593790492659        5.38526111437818       -1.03099412267303
H           -2.97100857213295        4.32792360309651       -2.69293289594819
H           -3.87999899309334        2.06872825626399       -2.27745598644002
H           -0.97190357250077        0.90170341777864       -1.69113490430292
H            1.47761780439149        0.96863933644472       -1.65199570946393
H            2.16267389052597       -2.69640396406387       -0.90668854766124
H            3.50618035437974       -4.66972547492264       -1.44645749387808
H            5.97287243063614       -4.59064549297227       -1.19195987621727
H            7.05633914674630       -2.51248673460536       -0.47896684813558
H            7.34578406006151        0.00884080209575        2.24331383960020
H            9.81126146942550        0.14440337422500        2.31491377251628
