  65
  -101.093231753600       0.181498240574353      !
 N        -10.6479145735       -0.0442422858       -0.1338063986
 C         -9.4999657089       -0.0341990371       -0.1000414207
 C         -8.0921490523       -0.0217275460       -0.0640100387
 C         -7.4169559336        0.7198947830        0.9121982471
 C         -6.0420471811        0.7373564449        0.9362827730
 C         -5.2909912500        0.0036856706        0.0047523325
 C         -3.8383170083        0.0128303898        0.0341085773
 C         -3.1277366524        1.2530306411        0.0229172092
 C         -3.7875163905        2.4814230730       -0.0891242743
 C         -3.1001956982        3.6873659847       -0.0030234077
 C         -1.7366794355        3.6847830852        0.2080339982
 C         -1.0465490998        2.4782855094        0.2535774663
 C         -1.7025884548        1.2529627070        0.0955614441
 C         -0.9866865796        0.0174460735        0.0396721859
 C          0.4662103653        0.0195948901        0.0317995065
 C          1.1846515697        0.7950185466       -0.8894148493
 C          2.5606708505        0.7833563315       -0.9123771380
 C          3.2746780608        0.0106163490        0.0047743323
 N          4.6707531023        0.0010155038       -0.0108849084
 C          5.4882886648        1.1140968045       -0.0591586193
 C          5.1512300764        2.4602259535       -0.0511075836
 C          6.1797542837        3.3831204194       -0.0777265198
 C          7.5140503762        2.9847250071       -0.1008018802
 C          7.8562998598        1.6465485049       -0.0793605446
 C          6.8405737905        0.7013158791       -0.0532914069
 C          6.8292683811       -0.7350859864       -0.0041860253
 C          7.8293532521       -1.6971162403        0.0049877644
 C          7.4652430836       -3.0295157625        0.0294314207
 C          6.1244274644       -3.4057563987        0.0260348081
 C          5.1111982554       -2.4658154935        0.0176375190
 C          5.4706914031       -1.1254483010        0.0232081065
 C          2.5734176256       -0.7545048618        0.9380933706
 C          1.1973302068       -0.7570743786        0.9419732974
 C         -1.6973710625       -1.2210782606       -0.0087348932
 C         -1.0394526401       -2.4461942373       -0.1616145515
 C         -1.7270109020       -3.6536853749       -0.1055199224
 C         -3.0898254470       -3.6579853085        0.1098728000
 C         -3.7795687413       -2.4527595742        0.1861369746
 C         -3.1222130000       -1.2242419497        0.0625240064
 C         -5.9830265941       -0.7442987996       -0.9610262971
 C         -7.3570647317       -0.7519706989       -1.0050138123
 H         -7.9853963400        1.2720912577        1.6465278673
 H         -5.5256936170        1.2888597671        1.7086312314
 H         -4.8539224724        2.4999299232       -0.2529606066
 H         -3.6416721955        4.6175371966       -0.0864702048
 H         -1.1970778792        4.6130423529        0.3219297658
 H          0.0192747742        2.4915119141        0.4226292947
 H          0.6427720107        1.3696713078       -1.6261563320
 H          3.0965348621        1.3483546666       -1.6604509686
 H          4.1212029159        2.7808046731       -0.0124180825
 H          5.9429645319        4.4367673382       -0.0765018446
 H          8.2888248324        3.7363179360       -0.1248914003
 H          8.8906500121        1.3379071244       -0.0778827193
 H          8.8685317245       -1.4058594318       -0.0125005648
 H          8.2276625874       -3.7937762873        0.0397250982
 H          5.8700938407       -4.4553301455        0.0253970442
 H          4.0756070789       -2.7690970908       -0.0061040337
 H          3.1203169132       -1.3227949515        1.6756229347
 H          0.6659905331       -1.3270463036        1.6899354778
 H          0.0253491482       -2.4586501576       -0.3364348746
 H         -1.1858928698       -4.5815623745       -0.2150861436
 H         -3.6288156666       -4.5886299148        0.2030364255
 H         -4.8458923152       -2.4713131814        0.3509074699
 H         -5.4188707753       -1.2897190392       -1.7035642621
 H         -7.8786428837       -1.3148905779       -1.7655202499
  65
  -101.093003223000       0.142510553670791      !
 N        -10.6017742956        0.1046289561        0.6441372269
 C         -9.4619398221        0.0865421083        0.5062314941
 C         -8.0638821948        0.0634139758        0.3390280813
 C         -7.2391786933        0.7931159417        1.2033875190
 C         -5.8754608225        0.7721931037        1.0335572386
 C         -5.2807092828        0.0106302094        0.0144650887
 C         -3.8356331475       -0.0166027823       -0.1316426382
 C         -3.1127096315        1.2150659868       -0.2109363851
 C         -3.7712178248        2.4440056718       -0.3209221311
 C         -3.0752886040        3.6476463836       -0.2922623861
 C         -1.7046190789        3.6403069923       -0.1340675389
 C         -1.0193727755        2.4312833477       -0.0881780362
 C         -1.6860679587        1.2061514092       -0.1993142149
 C         -0.9867362374       -0.0383121527       -0.2562353082
 C          0.4656171931       -0.0617175346       -0.2308848266
 C          1.2321209809        0.7086675725       -1.1166959229
 C          2.6074940703        0.7066857894       -1.0574651554
 C          3.2712788346       -0.0527083937       -0.0928780038
 N          4.6640307645       -0.0212554371       -0.0008590293
 C          5.4423639059        1.1205920834        0.0338760490
 C          5.0586716069        2.4539740763        0.0128842236
 C          6.0509718969        3.4126681479        0.0940118220
 C          7.3941168302        3.0617533662        0.2042609464
 C          7.7799693365        1.7362208198        0.2537953247
 C          6.8011686576        0.7557975103        0.1732038638
 C          6.8360242515       -0.6802473354        0.2200704665
 C          7.8641243874       -1.6058539585        0.3290310264
 C          7.5469078520       -2.9503822834        0.3219683398
 C          6.2268454845       -3.3739788177        0.1896476012
 C          5.1864754520       -2.4708261382        0.0786435834
 C          5.4959187530       -1.1185142088        0.1145072360
 C          2.5218495856       -0.8364585002        0.7863163440
 C          1.1484576298       -0.8487776961        0.7079996349
 C         -1.7150131194       -1.2673393944       -0.3049263704
 C         -1.0707971131       -2.4919893670       -0.5079461904
 C         -1.7639294924       -3.6964167072       -0.4533768508
 C         -3.1165650238       -3.6963723398       -0.1807367949
 C         -3.7940008730       -2.4896340215       -0.0436270643
 C         -3.1354804729       -1.2618030105       -0.1707416855
 C         -6.1208018969       -0.7168223206       -0.8427884351
 C         -7.4876125679       -0.6868261312       -0.6921297091
 H         -7.6837066660        1.3657616088        2.0044399091
 H         -5.2407590110        1.3178264208        1.7166947489
 H         -4.8440736607        2.4634672529       -0.4366822631
 H         -3.6145914373        4.5790814011       -0.3749556523
 H         -1.1560048523        4.5673561027       -0.0604417046
 H          0.0510711292        2.4434621056        0.0463177861
 H          0.7316324958        1.2746803038       -1.8885824835
 H          3.1830602267        1.2752553721       -1.7727064181
 H          4.0193859353        2.7384163092       -0.0500376917
 H          5.7774823964        4.4572239428        0.0763116644
 H          8.1399135796        3.8402381157        0.2630724318
 H          8.8192097256        1.4639908728        0.3587162608
 H          8.8889282137       -1.2774795993        0.4131094952
 H          8.3312907867       -3.6870436432        0.4101242532
 H          6.0111368656       -4.4319191505        0.1689525578
 H          4.1695339485       -2.8109313060       -0.0448312475
 H          3.0274342971       -1.4055714827        1.5520463436
 H          0.5780437659       -1.4295929004        1.4178396041
 H         -0.0124878511       -2.5049954173       -0.7196569907
 H         -1.2347278732       -4.6250171928       -0.6062720499
 H         -3.6579742587       -4.6256649699       -0.0870914951
 H         -4.8507100655       -2.5075509950        0.1733795130
 H         -5.6835430133       -1.2730117898       -1.6592052355
 H         -8.1259814892       -1.2361045055       -1.3689595419
  65
  -101.092954023900       0.135280963116957      !
 N        -10.6490943842        0.0940648918        0.0818635987
 C         -9.5008148642        0.0744299349        0.0647773000
 C         -8.0927930403        0.0520329258        0.0417930081
 C         -7.3610126619        0.7379383403        1.0182091898
 C         -5.9866940912        0.7223354688        0.9854860739
 C         -5.2919089672        0.0095205841       -0.0043489119
 C         -3.8390555368       -0.0101786342       -0.0236908495
 C         -3.1122754227        1.2219799129       -0.0332936144
 C         -3.7647498945        2.4532000100       -0.1566683493
 C         -3.0613723890        3.6515376770       -0.2122270184
 C         -1.6824784726        3.6366601022       -0.1946419751
 C         -1.0055397212        2.4240184390       -0.1291306185
 C         -1.6861299879        1.2058547860       -0.0257498592
 C         -0.9878863738       -0.0411123104       -0.0223488058
 C          0.4668566841       -0.0507056025       -0.0071813531
 C          1.2003301379       -0.7207225140       -0.9951144492
 C          2.5770424581       -0.7036696410       -0.9951848867
 C          3.2737513095       -0.0352701363        0.0125592587
 N          4.6697474987       -0.0129548651        0.0162098675
 C          5.4567504583        1.1098700616        0.1911900281
 C          5.0829550177        2.4374944772        0.3438024590
 C          6.0857704180        3.3800235692        0.4716775331
 C          7.4306980618        3.0201682365        0.4389018767
 C          7.8092253893        1.7040876907        0.2577254846
 C          6.8197144961        0.7399905150        0.1271112731
 C          6.8478337955       -0.6796741962       -0.0940514071
 C          7.8750567441       -1.6033512590       -0.2257819620
 C          7.5490664675       -2.9330141003       -0.4108469248
 C          6.2195081336       -3.3458420700       -0.4463712227
 C          5.1798363384       -2.4443902925       -0.3164168091
 C          5.5005309652       -1.1033544336       -0.1596918001
 C          2.5556018373        0.6181708392        1.0153650089
 C          1.1794787770        0.6202863646        0.9956439634
 C         -1.7126626883       -1.2723644302       -0.0329112436
 C         -1.0582615609       -2.5056168140        0.0601256433
 C         -1.7608336134       -3.7045268477        0.1100649515
 C         -3.1396151759       -3.6901793537        0.1242906323
 C         -3.8174765268       -2.4764574839        0.0820686188
 C         -3.1394250756       -1.2579449576       -0.0273267476
 C         -6.0397368472       -0.6796619910       -0.9718318392
 C         -7.4146599462       -0.6536376572       -0.9588445885
 H         -7.8857041591        1.2735183263        1.7959295874
 H         -5.4252474898        1.2322396200        1.7549214416
 H         -4.8406288501        2.4795631101       -0.2334887045
 H         -3.6007186232        4.5837237106       -0.2883661813
 H         -1.1223005654        4.5580283943       -0.2533506821
 H          0.0721399381        2.4269554849       -0.1804264838
 H          0.6714026375       -1.2138448450       -1.7976169888
 H          3.1262373255       -1.1814401871       -1.7927461722
 H          4.0445962058        2.7319432676        0.3481345102
 H          5.8197384016        4.4195785550        0.5944739261
 H          8.1847763190        3.7858504097        0.5448496114
 H          8.8515449238        1.4273748454        0.2123542577
 H          8.9054985397       -1.2854908148       -0.1787034682
 H          8.3328977394       -3.6676331470       -0.5188968576
 H          5.9951722526       -4.3947047309       -0.5734157274
 H          4.1538446840       -2.7794891473       -0.3232960166
 H          3.0886878552        1.1011052063        1.8206946478
 H          0.6332430279        1.1077922507        1.7898402142
 H          0.0188963189       -2.5310393615        0.1161843615
 H         -1.2205702702       -4.6378679834        0.1622781444
 H         -3.6986394894       -4.6113048080        0.1893081278
 H         -4.8939044592       -2.4818210978        0.1565210650
 H         -5.5201973647       -1.2022882689       -1.7620231600
 H         -7.9807798091       -1.1707089643       -1.7202968962
  65
  -101.092966782700       0.137119817012011      !
 N        -10.6491849100       -0.0269383813       -0.0080739006
 C         -9.5006279017       -0.0168843169       -0.0095310576
 C         -8.0922782131       -0.0126136610       -0.0078436662
 C         -7.3879690215       -0.0340197887        1.2014597006
 C         -6.0130658904       -0.0172537530        1.1980204849
 C         -5.2903028609        0.0004853540       -0.0052883029
 C         -3.8373231430        0.0063923560       -0.0036783332
 C         -3.1286496886        0.9961638722        0.7474401894
 C         -3.7916764819        2.0285206556        1.4179319968
 C         -3.1038757040        2.9407488470        2.2130037528
 C         -1.7360551008        2.8331346086        2.3533431792
 C         -1.0430831934        1.8566690567        1.6451291713
 C         -1.7026951257        0.9652647752        0.7922511454
 C         -0.9881771790        0.0152573225        0.0027538611
 C          0.4701355350        0.0156267504        0.0082040495
 C          1.1915467710        1.1640297557       -0.3370543050
 C          2.5694460733        1.1599151641       -0.3501204394
 C          3.2707282340        0.0102848186        0.0109722559
 N          4.6698909105        0.0053943177        0.0087820943
 C          5.4772142642        0.3919933394       -1.0426651021
 C          5.1247387243        0.8205692738       -2.3144128462
 C          6.1437137858        1.1144705849       -3.2004781007
 C          7.4823613079        0.9795631897       -2.8399008433
 C          7.8386227869        0.5327607500       -1.5822852179
 C          6.8329297583        0.2316133887       -0.6744273299
 C          6.8333802555       -0.2670310898        0.6734394965
 C          7.8400294090       -0.5901230257        1.5726795043
 C          7.4848998265       -1.0287250690        2.8335209555
 C          6.1467620391       -1.1340568283        3.2057903323
 C          5.1268852691       -0.8187789058        2.3281780857
 C          5.4777777127       -0.3985802421        1.0531687345
 C          2.5643340461       -1.1360771016        0.3727465896
 C          1.1866865227       -1.1349001073        0.3568858988
 C         -1.6935436389       -0.9374546910       -0.7919678527
 C         -1.0245939600       -1.8230763456       -1.6436184164
 C         -1.7080819954       -2.8031315466       -2.3560794335
 C         -3.0756649687       -2.9201638752       -2.2213442148
 C         -3.7727256381       -2.0137691089       -1.4276683555
 C         -3.1193807340       -0.9777770107       -0.7532019819
 C         -6.0110091942        0.0115745360       -1.2098722500
 C         -7.3859691812        0.0153978965       -1.2158238057
 H         -7.9338426131       -0.0691497044        2.1331408729
 H         -5.4732104255       -0.0609516725        2.1327602039
 H         -4.8610554227        2.1300118939        1.3154365212
 H         -3.6495674168        3.7182719435        2.7259262831
 H         -1.1952283493        3.5094864654        2.9981145721
 H          0.0272422588        1.7837777562        1.7628069415
 H          0.6546359673        2.0559223550       -0.6254459772
 H          3.1145899896        2.0515437895       -0.6223638024
 H          4.0898238108        0.9105862925       -2.6084071714
 H          5.8961329751        1.4494309715       -4.1969145237
 H          8.2494081282        1.2178575506       -3.5614887204
 H          8.8759874391        0.4120024511       -1.3092219170
 H          8.8774055949       -0.4941949009        1.2900231545
 H          8.2526871610       -1.2867004305        3.5474546424
 H          5.9005980629       -1.4644079117        4.2040631924
 H          4.0927760524       -0.8853801212        2.6311284019
 H          3.1055972185       -2.0296915361        0.6462070443
 H          0.6456842340       -2.0248337241        0.6437419729
 H          0.0457416620       -1.7432040842       -1.7566250228
 H         -1.1599609392       -3.4753720791       -2.9989845147
 H         -3.6138259886       -3.7016602593       -2.7361135748
 H         -4.8416523357       -2.1231750182       -1.3289327164
 H         -5.4700135212        0.0614218651       -2.1436755520
 H         -7.9304611874        0.0477368667       -2.1483906989
  65
  -101.092878964900       0.124951639367120      !
 N        -10.5797153922        0.1286775428        0.7727996452
 C         -9.4435023826        0.1079645981        0.6068502104
 C         -8.0499873126        0.0798640399        0.4055874322
 C         -7.2022255757        0.8033812372        1.2526817296
 C         -5.8430746706        0.7773627422        1.0506614321
 C         -5.2756713943        0.0158204500        0.0160942882
 C         -3.8337667840       -0.0189767705       -0.1584376835
 C         -3.1072379171        1.2097955155       -0.2486289587
 C         -3.7636613667        2.4400521997       -0.3555992513
 C         -3.0641576695        3.6418688178       -0.3386865878
 C         -1.6920125056        3.6310309985       -0.1939779825
 C         -1.0097323010        2.4202731862       -0.1492041673
 C         -1.6806351875        1.1965376590       -0.2497474860
 C         -0.9865482998       -0.0508795698       -0.3060168269
 C          0.4655340209       -0.0808482832       -0.2760031892
 C          1.2400291823        0.6862152911       -1.1577318253
 C          2.6147658148        0.6855394252       -1.0847534919
 C          3.2694355677       -0.0695606301       -0.1106853022
 N          4.6605636608       -0.0283998008        0.0006089592
 C          5.4276331247        1.1205299741        0.0503092626
 C          5.0318148066        2.4502102177        0.0243062629
 C          6.0134761601        3.4180724057        0.1234846713
 C          7.3577618090        3.0795162041        0.2563717770
 C          7.7550767918        1.7575628533        0.3108782183
 C          6.7870996118        0.7680591240        0.2123712018
 C          6.8342513816       -0.6676946557        0.2582177507
 C          7.8686430718       -1.5841731323        0.3837970647
 C          7.5637575760       -2.9315323377        0.3697606383
 C          6.2500002014       -3.3669001799        0.2147462972
 C          5.2034848441       -2.4730374448        0.0873596740
 C          5.5001729521       -1.1180527162        0.1295093430
 C          2.5124597128       -0.8553044899        0.7601968471
 C          1.1399065058       -0.8685967731        0.6685113195
 C         -1.7200520650       -1.2769723076       -0.3528745290
 C         -1.0808535747       -2.5031221280       -0.5620240686
 C         -1.7777284515       -3.7053772208       -0.5069274436
 C         -3.1289153740       -3.7014038195       -0.2272902972
 C         -3.8014234951       -2.4928791591       -0.0819140225
 C         -3.1395086237       -1.2668833759       -0.2087962393
 C         -6.1385497196       -0.7037949756       -0.8247309299
 C         -7.5014054930       -0.6683193544       -0.6419544534
 H         -7.6253398975        1.3747905338        2.0660382931
 H         -5.1900083529        1.3184895475        1.7200314628
 H         -4.8377372306        2.4617269683       -0.4590927758
 H         -3.6015304177        4.5745482972       -0.4194757505
 H         -1.1400201048        4.5567563366       -0.1291253347
 H          0.0617700831        2.4303234524       -0.0237888202
 H          0.7467514253        1.2494874688       -1.9362291792
 H          3.1971800838        1.2534217695       -1.7950334135
 H          3.9912829642        2.7247329442       -0.0561061281
 H          5.7304653896        4.4600001055        0.1027520735
 H          8.0951493411        3.8649764687        0.3290522648
 H          8.7946596535        1.4950767495        0.4340839568
 H          8.8888503458       -1.2467150795        0.4856567372
 H          8.3533756290       -3.6612766069        0.4695285436
 H          6.0443598370       -4.4267118605        0.1893923279
 H          4.1917260824       -2.8218569365       -0.0529205676
 H          3.0110875713       -1.4240778061        1.5307573480
 H          0.5630076412       -1.4499969601        1.3726339310
 H         -0.0235151828       -2.5188819057       -0.7785821303
 H         -1.2526279419       -4.6353217256       -0.6655920339
 H         -3.6730211898       -4.6291064224       -0.1335000721
 H         -4.8567415018       -2.5080893336        0.1417230096
 H         -5.7230786009       -1.2579118783       -1.6538412194
 H         -8.1579247380       -1.2116685209       -1.3061155733
  65
  -101.092816148700       0.116915914691955      !
 N        -10.6502449756       -0.0383203584        0.0493980980
 C         -9.5014064619       -0.0365594000        0.0388461204
 C         -8.0931023260       -0.0227340542        0.0262093454
 C         -7.3764835281       -0.0028548122        1.2283582230
 C         -6.0019394541        0.0168544906        1.2106134889
 C         -5.2910077204       -0.0023971334        0.0001634214
 C         -3.8384659672        0.0051870094       -0.0123556443
 C         -3.1242415328        1.0108730579        0.7116181514
 C         -3.7826589156        2.0604776471        1.3598100493
 C         -3.0915427948        2.9827165035        2.1396050561
 C         -1.7254117025        2.8652043194        2.2898254511
 C         -1.0368041607        1.8729203138        1.6000117881
 C         -1.6984175925        0.9752476664        0.7553062743
 C         -0.9876654120        0.0150885579       -0.0267431743
 C          0.4690023960        0.0129096695       -0.0270342708
 C          1.1938481980        1.1678227215       -0.3458318534
 C          2.5715094162        1.1646777392       -0.3505452718
 C          3.2723131206        0.0069697758       -0.0137508727
 N          4.6708114007        0.0037576323        0.0003485401
 C          5.4930503027        0.4453304807       -1.0178843816
 C          5.1602138489        0.9329867009       -2.2736728292
 C          6.1922848117        1.2760900068       -3.1261732760
 C          7.5253734087        1.1327385150       -2.7489975090
 C          7.8626901672        0.6257580441       -1.5091352593
 C          6.8434678516        0.2738422106       -0.6354918195
 C          6.8253577579       -0.2910841901        0.6857895867
 C          7.8201902860       -0.6546573859        1.5826813662
 C          7.4486817612       -1.1564324866        2.8148006127
 C          6.1057066492       -1.2830675500        3.1617503721
 C          5.0975334462       -0.9283932687        2.2856521862
 C          5.4648022358       -0.4465798455        1.0372472555
 C          2.5631284321       -1.1489274984        0.3122814320
 C          1.1858993094       -1.1463806873        0.2944668755
 C         -1.7000920560       -0.9472515155       -0.8046995994
 C         -1.0399588824       -1.8385909933       -1.6571843876
 C         -1.7280005082       -2.8352704729       -2.3417215606
 C         -3.0918771707       -2.9631971630       -2.1781888505
 C         -3.7821031357       -2.0473530615       -1.3900540553
 C         -3.1251500839       -0.9935705730       -0.7465952175
 C         -6.0242287607       -0.0302280176       -1.1967810317
 C         -7.3990495434       -0.0303856693       -1.1889596792
 H         -7.9127513906       -0.0093198686        2.1660902293
 H         -5.4528727828        0.0030678668        2.1408830796
 H         -4.8509464999        2.1671977542        1.2508767287
 H         -3.6328497778        3.7753488525        2.6335855125
 H         -1.1820389247        3.5483331684        2.9252474613
 H          0.0321272487        1.7934852415        1.7257331468
 H          0.6593049958        2.0653576328       -0.6208607078
 H          3.1167650740        2.0636720280       -0.5970494773
 H          4.1303913183        1.0299299131       -2.5826692459
 H          5.9595361148        1.6609918337       -4.1080101880
 H          8.3031452333        1.4160014359       -3.4423105102
 H          8.8958729185        0.4997002388       -1.2230760422
 H          8.8610996574       -0.5406834995        1.3206308916
 H          8.2069843686       -1.4480647067        3.5260146977
 H          5.8459595321       -1.6627533693        4.1387353209
 H          4.0598442277       -1.0120606592        2.5712527071
 H          3.1024084122       -2.0497623835        0.5647935559
 H          0.6448374496       -2.0413790125        0.5648117644
 H          0.0272026972       -1.7508660658       -1.7928421554
 H         -1.1860858035       -3.5125581623       -2.9845175807
 H         -3.6322939738       -3.7589353407       -2.6684495195
 H         -4.8482655231       -2.1631115511       -1.2699309853
 H         -5.4930035839       -0.0103438237       -2.1372689125
 H         -7.9529650616       -0.0331381840       -2.1165666162
  65
  -101.092619318000       9.493284692772451E-002 !
 N        -10.6481558131       -0.0616980427        0.1214815817
 C         -9.5000940163       -0.0486349565        0.0931018551
 C         -8.0921709614       -0.0319736673        0.0606336572
 C         -7.3617231492        0.0433916844        1.2523422343
 C         -5.9875608125        0.0682743729        1.2167621057
 C         -5.2918067545       -0.0022592562       -0.0003819943
 C         -3.8388579970        0.0098911998       -0.0277374358
 C         -3.1245725710        1.0727188155        0.6102457090
 C         -3.7899689299        2.1749233745        1.1564446758
 C         -3.0978663524        3.2333485944        1.7361815626
 C         -1.7189401907        3.2308401875        1.7366595716
 C         -1.0295519907        2.1734433507        1.1530146825
 C         -1.6982074824        1.0740184159        0.6034559218
 C         -0.9880587103        0.0199977308       -0.0492386147
 C          0.4689572016        0.0167289442       -0.0394626152
 C          1.2021218508       -0.0203700228       -1.2315743799
 C          2.5797192915       -0.0185317468       -1.2198058269
 C          3.2722793941        0.0038537684       -0.0092873206
 N          4.6701396646       -0.0040485764        0.0069303811
 C          5.4927983772        0.8282738958       -0.7277240475
 C          5.1607238707        1.8670522760       -1.5857934265
 C          6.1931429936        2.5713095943       -2.1757508374
 C          7.5261408134        2.2622160489       -1.9163014543
 C          7.8627344986        1.2467500737       -1.0425430990
 C          6.8430346442        0.5251944229       -0.4379679908
 C          6.8249796865       -0.5502161918        0.5151392394
 C          7.8209286524       -1.2793439166        1.1496338004
 C          7.4510006388       -2.2917348592        2.0134172157
 C          6.1085991502       -2.5905808736        2.2334691012
 C          5.0994171239       -1.8787114086        1.6131473664
 C          5.4645710866       -0.8426315534        0.7652880758
 C          2.5541532980        0.0347842331        1.1862068930
 C          1.1770651377        0.0499075794        1.1680909296
 C         -1.7001067543       -1.0319405522       -0.7033038502
 C         -1.0329176069       -2.1214946016       -1.2739926385
 C         -1.7236840171       -3.1772043615       -1.8592060975
 C         -3.1022069956       -3.1904667850       -1.8359422339
 C         -3.7923875178       -2.1439490071       -1.2326620134
 C         -3.1270357186       -1.0410027575       -0.6878251069
 C         -6.0380844566       -0.0853916581       -1.1860833362
 C         -7.4130099843       -0.0902124759       -1.1615936943
 H         -7.8873153114        0.0760866159        2.1956354245
 H         -5.4266166058        0.1015429014        2.1394585772
 H         -4.8669845784        2.2221776922        1.1115753053
 H         -3.6467306222        4.0588993678        2.1635778692
 H         -1.1680737566        4.0533717124        2.1675629149
 H          0.0477411547        2.2156530109        1.1082023406
 H          0.6745990516       -0.0217672874       -2.1742832816
 H          3.1313499007       -0.0528940128       -2.1474730883
 H          4.1313295647        2.1286032251       -1.7786019019
 H          5.9603708273        3.3816646826       -2.8504265992
 H          8.3040416090        2.8337863502       -2.3997430431
 H          8.8956231428        1.0188922988       -0.8272289166
 H          8.8614664235       -1.0593932004        0.9650192815
 H          8.2100027106       -2.8691238110        2.5196450305
 H          5.8498861442       -3.3995142307        2.9004879233
 H          4.0627494959       -2.1321619287        1.7756530298
 H          3.0861130953        0.0653036721        2.1254265792
 H          0.6289642821        0.0591504808        2.0989484022
 H          0.0450340408       -2.1578439474       -1.2452652015
 H         -1.1736318391       -3.9908172902       -2.3078006720
 H         -3.6519141498       -4.0157127383       -2.2628008310
 H         -4.8678242933       -2.2017371906       -1.1684734381
 H         -5.5178452466       -0.1041476643       -2.1326916003
 H         -7.9780934058       -0.1337006798       -2.0813647330
  65
  -101.092287038900       6.679002463908673E-002 !
 N        -10.5954035774        0.4717156720       -0.5329540253
 C         -9.4570112191        0.3757489856       -0.4167403115
 C         -8.0603649901        0.2563691693       -0.2806556905
 C         -7.4709082430        0.2751126865        0.9884252165
 C         -6.1050826546        0.1769486955        1.1155477018
 C         -5.2802767749        0.0401009749       -0.0115831258
 C         -3.8353915856       -0.0535787645        0.1105005655
 C         -3.1034814881        0.9591640269        0.8076069422
 C         -3.7405783633        2.0824981910        1.3448015589
 C         -3.0298183758        3.0932524341        1.9838011906
 C         -1.6543792259        3.0257038754        2.0477353204
 C         -0.9881291199        1.9520512228        1.4669093597
 C         -1.6781940891        0.8945895529        0.8641250928
 C         -0.9887808746       -0.1744761967        0.2121862155
 C          0.4671346282       -0.1893809945        0.1721279594
 C          1.1349665921       -0.2299403113       -1.0585459762
 C          2.5092531558       -0.1846284281       -1.1240426309
 C          3.2674245992       -0.1144311952        0.0453061767
 N          4.6610262074       -0.0334016718       -0.0270653561
 C          5.3694045523        0.8462392294       -0.8241518201
 C          4.9048182698        1.8486307112       -1.6638992286
 C          5.8402956869        2.6166052013       -2.3308341818
 C          7.2068343879        2.4055803939       -2.1642552797
 C          7.6753165648        1.4283928146       -1.3077950572
 C          6.7544994678        0.6442147636       -0.6269767270
 C          6.8794085211       -0.4157107759        0.3354006889
 C          7.9671026498       -1.0611774164        0.9064629521
 C          7.7321567034       -2.0829985540        1.8057186431
 C          6.4333304580       -2.4733774371        2.1227368386
 C          5.3346042604       -1.8461622570        1.5663710938
 C          5.5639704725       -0.8009740346        0.6829234263
 C          2.6171050054       -0.1118403608        1.2790404301
 C          1.2404987001       -0.1420374676        1.3382758141
 C         -1.7225719913       -1.2107118380       -0.4428042521
 C         -1.0812247976       -2.3410692229       -0.9611834196
 C         -1.7952935600       -3.3781254173       -1.5514462888
 C         -3.1729271313       -3.3265083744       -1.5911178731
 C         -3.8393544125       -2.2345978210       -1.0446951564
 C         -3.1459916657       -1.1538281491       -0.4904793761
 C         -5.8884136768        0.0030086047       -1.2766144195
 C         -7.2510290055        0.1199495471       -1.4146273355
 H         -8.0984344364        0.3631378981        1.8634704473
 H         -5.6573716873        0.1631307495        2.0986481075
 H         -4.8098023385        2.1859763206        1.2461064079
 H         -3.5602161885        3.9332511042        2.4061618618
 H         -1.0865107854        3.8112895428        2.5232294827
 H          0.0906230063        1.9511214974        1.4664522116
 H          0.5556980234       -0.2631565444       -1.9697481953
 H          3.0095014938       -0.2137026813       -2.0804883543
 H          3.8485312032        2.0349146202       -1.7851695956
 H          5.5032490313        3.4007747835       -2.9924131018
 H          7.9061558752        3.0247184744       -2.7058846577
 H          8.7344233656        1.2775635697       -1.1638685242
 H          8.9736715747       -0.7704659746        0.6463296301
 H          8.5643325754       -2.5961965780        2.2639230738
 H          6.2808789082       -3.2874179417        2.8158631586
 H          4.3328842711       -2.1699610542        1.8047332605
 H          3.1987579825       -0.0602745690        2.1874218617
 H          0.7468427962       -0.1542737815        2.2991058045
 H         -0.0075768075       -2.4219739087       -0.8868104272
 H         -1.2658205727       -4.2271033099       -1.9571796382
 H         -3.7411093562       -4.1349239093       -2.0260003376
 H         -4.9183705821       -2.2363670458       -1.0336631434
 H         -5.2644409370       -0.0784424648       -2.1547845112
 H         -7.7062192066        0.1137584840       -2.3943974475
