64
 energy: -97.110792014860 gnorm: 0.000057302855 xtb: 6.7.1 (edcfbbe)
C            8.49937387310858       -0.00004655554794        0.00003236518625
C            7.80469349961291       -0.46499685208288       -1.10451053246971
C            6.42084773888650       -0.46556391526188       -1.10557786633796
C            5.71699396478606       -0.00002866194652       -0.00000244000251
C            4.23452856860842       -0.00002151944371       -0.00002067854180
C            3.53845736674819       -1.12113989016350        0.46963260056100
C            4.21657388365003       -2.27261079507376        0.95051162746409
C            3.52982657080458       -3.35850177945750        1.39917136863505
C            2.11954974057560       -3.36135743666858        1.39315729046052
C            1.43170851109014       -2.27728949111962        0.94177862914346
C            2.10854858670965       -1.12168388097010        0.46904598449659
C            1.41286032651818       -0.00000274537971       -0.00003145052806
C           -0.06875536578914        0.00000835651329       -0.00003103467063
C           -0.77467518719097       -0.32313910718607       -1.15446945341397
C           -2.15645196721174       -0.32114539468612       -1.15897793857437
C           -2.85703100949547        0.00002283047206       -0.00001464130436
N           -4.26180464341584        0.00002520456332       -0.00000163889588
C           -5.06922755641906        1.04027734396002        0.41297659141173
C           -4.71875999518172        2.30393731633562        0.86794946379509
C           -5.73769883298260        3.17612581434971        1.20001024292657
C           -7.07716545074723        2.81007959200923        1.07909240910647
C           -7.43229768518907        1.56247046085391        0.60590559373968
C           -6.42580674962007        0.66793169664049        0.26398270254057
C           -6.42581608219492       -0.66788138689554       -0.26390719455461
C           -7.43231962719213       -1.56241975135335       -0.60579392742210
C           -7.07720488399462       -2.81002761903871       -1.07899729821797
C           -5.73774272542144       -3.17607257314677       -1.19996784074814
C           -4.71879157658546       -2.30388495421541       -0.86794219463268
C           -5.06924221288684       -1.04022658720010       -0.41295196646354
C           -2.15643456597099        0.32118563630078        1.15893973291781
C           -0.77465843828248        0.32316414234696        1.15441554334016
C            2.10856710156015        1.12167077033699       -0.46909970247200
C            1.43174439065703        2.27728562891486       -0.94183699332443
C            2.11960017397614        3.36134035041481       -1.39321768506918
C            3.52987707391924        3.35846874886965       -1.39921863832278
C            4.21660997772744        2.27256442550714       -0.95056135903561
C            3.53847603637581        1.12110226841283       -0.46968789211386
C            6.42082672140061        0.46549939884982        1.10559017652712
C            7.80467274522329        0.46491344781123        1.10455797276992
H            9.57972185567647       -0.00005707954841        0.00004681604669
H            8.34248340703403       -0.82886739357040       -1.96832684071198
H            5.87628122242061       -0.82803229297825       -1.96618855676911
H            5.29692317574072       -2.26842143422779        0.95170592675614
H            4.05878048796269       -4.22794835679663        1.76203665066511
H            1.59123116658656       -4.23382613164368        1.74980162375732
H            0.35142638478524       -2.27893830628135        0.93510827526362
H           -0.23272347439154       -0.57199360658889       -2.05542875908962
H           -2.69966595531795       -0.55734460214752       -2.06202765492167
H           -3.68432477812185        2.60117533807929        0.95267587029270
H           -5.49089074015187        4.16470097547829        1.55952419775945
H           -7.84513411051940        3.51892713183826        1.35252111978139
H           -8.47048668686714        1.28513688323001        0.49872334036901
H           -8.47050462777209       -1.28508670964002       -0.49857152671185
H           -7.84518365868800       -3.51887472070192       -1.35239878333036
H           -5.49094781728673       -4.16464611194807       -1.55949531150856
H           -3.68435952132054       -2.60112240190142       -0.95270901911309
H           -2.69963541276327        0.55739012666350        2.06199584695928
H           -0.23269320888026        0.57201147213397        2.05536891329550
H            0.35146265713945        2.27894057338214       -0.93519509194991
H            1.59129398138245        4.23381616947169       -1.74986317694600
H            4.05884315542414        4.22790857828072       -1.76208227088963
H            5.29695958372127        2.26836868585878       -0.95172670505161
H            5.87624346040481        0.82797565566802        1.96618689966815
H            8.34244615762815        0.82877302127135        1.96838928848025
