64
 energy: -97.111014708925 gnorm: 0.000147122706 xtb: 6.7.1 (edcfbbe)
C            8.60114005288988        0.00004906990661        0.00136185983215
C            7.90628550937806        0.20933117203472       -1.17856741298578
C            6.52263651561204        0.21240807166506       -1.17932907410488
C            5.81716063148605        0.00119464772550        0.00137681770809
C            4.33692302477616        0.00132792660015        0.00076747553361
C            3.63908956137782       -1.20578779637389        0.14724785403216
C            4.31570292902689       -2.44853628952985        0.27065494210936
C            3.63067257424119       -3.61228487848315        0.43932077104673
C            2.22244937861060       -3.60474477303667        0.50218219436332
C            1.53535794525022       -2.43781243949892        0.36658399401886
C            2.20907817820015       -1.20406087793064        0.16326296543062
C            1.51144790324239        0.00126897384438       -0.00235227147757
C            0.03257417992261        0.00150018137915       -0.00297823710124
C           -0.67583389392655       -0.56499763188111       -1.05919483140609
C           -2.05727801043204       -0.56058794024672       -1.06576975300193
C           -2.75812139511296        0.00116401304696       -0.00243396417176
N           -4.16207768105097        0.00054102306431       -0.00163832610700
C           -4.96983445041202        1.10219919104373        0.19473229627852
C           -4.61996335419814        2.43209778637214        0.38374301367856
C           -5.63926722747913        3.35297046241448        0.53309865703415
C           -6.97847220209117        2.96931277737408        0.48959194276518
C           -7.33306660642671        1.65147876768820        0.27944376726231
C           -6.32618781976401        0.70663545131286        0.12592863386892
C           -6.32573755034270       -0.70849093206870       -0.12011289865238
C           -7.33199766217386       -1.65473691791767       -0.26896357242982
C           -6.97654281194467       -2.97218679328588       -0.48005978636798
C           -5.63702214102205       -3.35404240808425       -0.52921664992109
C           -4.61831464378720       -2.43173675769696       -0.38465134621040
C           -4.96914166373253       -1.10226229182474       -0.19445800977913
C           -2.05698479391388        0.56332599687343        1.06051125952650
C           -0.67559583832048        0.56805368483920        1.05340322515944
C            2.20941951668872        1.20662165298908       -0.16644249117939
C            1.53610815475474        2.44033672841615       -0.37136310670076
C            2.22346177681490        3.60732852535863       -0.50510136140504
C            3.63153811075310        3.61496436271270       -0.43878016020852
C            4.31623262875653        2.45122809444648       -0.26868750411521
C            3.63937464568014        1.20842739005748       -0.14713485112619
C            6.52245100274508       -0.21035887205831        1.18212121836505
C            7.90612638645196       -0.20843838946638        1.18131058570407
H            9.68152993491491       -0.00052311477738        0.00134461869718
H            8.44397295908064        0.37122924040259       -2.10184999262278
H            5.97845449340056        0.37406622092996       -2.09931810085157
H            5.39486767002703       -2.45297002760446        0.22782845272711
H            4.16009843651284       -4.54962773529909        0.53144249629281
H            1.69449235691592       -4.53486569454505        0.65595405912534
H            0.45648913048191       -2.43386053836132        0.41487335604555
H           -0.13479200890332       -0.99927673071733       -1.88748528465511
H           -2.60031678404620       -0.98185636901073       -1.89878460113127
H           -3.58560605045657        2.74120423092863        0.40407962448941
H           -5.39283824801200        4.39403777618571        0.68427349600084
H           -7.74666635064401        3.71867395132692        0.61356590633480
H           -8.37115697053849        1.35762814246577        0.23127494419110
H           -8.37025813485038       -1.36224757537930       -0.21638886725904
H           -7.74424989094868       -3.72264789695991       -0.60035524772440
H           -5.38984657892674       -4.39483316596687       -0.68109032322386
H           -3.58365092594593       -2.73948986625144       -0.40933143940455
H           -2.59981252380930        0.98441708315876        1.89374973101238
H           -0.13431996899961        1.00248989109364        1.88144666991618
H            0.45738630959027        2.43623990331391       -0.42287283359827
H            1.69585679712269        4.53734743962603       -0.66069847846073
H            4.16108710203897        4.55241410404032       -0.52909225604912
H            5.39526965112217        2.45569150232518       -0.22281571305410
H            5.97822031515784       -0.37148174032749        2.10216771402373
H            8.44373827523038       -0.37077120279953        2.10457934034362
