64
 energy: -97.042302712473 gnorm: 0.000058638546 xtb: 6.7.1 (edcfbbe)
C            8.60807865636746        0.00145242754966       -0.00033456792037
C            7.91035726197387        0.60803506777472       -1.03332740958474
C            6.52883288997545        0.61422809604287       -1.03214682353407
C            5.81215984957080        0.00111818160273       -0.00045545696855
C            4.34863782718492        0.00091534347130       -0.00055231415308
C            3.63957812611721       -1.23699851872472        0.02163744022652
C            4.30556312460431       -2.46634380088885       -0.02737344653156
C            3.61816078453902       -3.67240191150836        0.08789118835040
C            2.25161043523146       -3.66620542690393        0.26764611299287
C            1.55752313070091       -2.45736651049176        0.26467853149960
C            2.21301679020013       -1.23667280646756        0.08183044144813
C            1.49897593000790        0.00053426353001       -0.00030573756095
C            0.04472752105914        0.00040497428557        0.00004445842836
C           -0.68087706058708       -0.78021647288710       -0.91114441068097
C           -2.05772165777934       -0.77183490485740       -0.92142289708734
C           -2.76559233852077        0.00024583615659        0.00080931815399
N           -4.16494111076261        0.00012392803242        0.00122801345881
C           -4.97399291298328        1.11993876539025        0.03001049212145
C           -4.62686650605014        2.46396561200222        0.01107873614321
C           -5.64784819114671        3.39560098273015        0.01937893948080
C           -6.98618032901584        3.00833931130683        0.03529664670244
C           -7.33870332814106        1.67271246180438        0.02637149633979
C           -6.33015141676623        0.71829513825999        0.01852722253023
C           -6.33006744252034       -0.71833315591155       -0.01479310998273
C           -7.33849955659668       -1.67288100611089       -0.02199571271945
C           -6.98581917811410       -3.00846387132137       -0.03111886581652
C           -5.64742717597619       -3.39555409691945       -0.01600955391148
C           -4.62656040535369       -2.46378677908956       -0.00836062923329
C           -4.97386179858197       -1.11980458311306       -0.02709688605619
C           -2.05731212909736        0.77244803326877        0.92262971941769
C           -0.68047741334400        0.78098463547683        0.91159264003585
C            2.21268782526344        1.23792220136352       -0.08269621020069
C            1.55682517811859        2.45841841934969       -0.26551968672008
C            2.25057437902077        3.66745033897567       -0.26867256826511
C            3.61714693926085        3.67403899059505       -0.08910624475913
C            4.30490215213854        2.46818101267877        0.02614220726850
C            3.63925627098134        1.23864395032899       -0.02272607890153
C            6.52888537875595       -0.61183149695694        1.03129151979588
C            7.91040900075161       -0.60529798236772        1.03259537936524
H            9.68823066354011        0.00155974266747       -0.00029872615960
H            8.44730047913882        1.07703204848861       -1.84567101605138
H            5.98819854695351        1.07286975644404       -1.84811586680595
H            5.37675439120358       -2.48323551742049       -0.15853101750899
H            4.16467033635811       -4.60343373781367        0.05266202018948
H            1.70987245467936       -4.59132838800226        0.39958941251028
H            0.48893801910992       -2.46989599823597        0.41497367551771
H           -0.14495102264415       -1.35948082100623       -1.64873959357471
H           -2.59808645531402       -1.34412031252988       -1.66086810360471
H           -3.59414406836480        2.77625111426889       -0.02054801857304
H           -5.40239807965139        4.44765816033473        0.00921534928116
H           -7.75552219407633        3.76649860949503        0.04449454519810
H           -8.37601652541195        1.37281134184211        0.02075907869455
H           -8.37584745938904       -1.37311279788522       -0.01573935647929
H           -7.75506664451134       -3.76672469506730       -0.03981749623987
H           -5.40184558113254       -4.44758190034909       -0.00598052004271
H           -3.59377746942511       -2.77594139101279        0.02262113143501
H           -2.59732440535060        1.34468843293506        1.66236721219944
H           -0.14421193667616        1.36030988349343        1.64889522132210
H            0.48820844998280        2.47064113374004       -0.41561255394636
H            1.70855739689072        4.59241255340934       -0.40058700102394
H            4.16340420233227        4.60522443806264       -0.05402313657678
H            5.37610478156212        2.48539247638587        0.15716158865599
H            5.98828801388428       -1.07063591577840        1.84719336325070
H            8.44739472856056       -1.07420875799620        1.84496050688419
