  64
        -97.00410247
 C          8.6019311033       -0.0117101779       -0.0704849293
 C          7.8888022761        0.6611141640       -1.0503451635
 C          6.5082136495        0.6716783109       -1.0242006881
 C          5.8069873053       -0.0029102544       -0.0203772502
 C          4.3460265704        0.0003040989        0.0031714417
 C          3.6335693034       -1.2355508430       -0.0052736079
 C          4.2937583637       -2.4646356130       -0.1057539775
 C          3.6036876732       -3.6704801173       -0.0157588713
 C          2.2405809815       -3.6654559507        0.1880074230
 C          1.5511993544       -2.4554335405        0.2318478989
 C          2.2087302184       -1.2327030718        0.0741239778
 C          1.4974862248        0.0079295223        0.0338410994
 C          0.0454998864        0.0082041634        0.0350720870
 C         -0.6770109073       -0.7636373969       -0.8866361635
 C         -2.0526744363       -0.7573177730       -0.8999245147
 C         -2.7639770542        0.0049092756        0.0282177040
 N         -4.1608668170        0.0018986861        0.0203549123
 C         -4.9736238424        1.1182576111        0.0454808757
 C         -4.6304445154        2.4628541563        0.0512365634
 C         -5.6546355361        3.3907519511        0.0447087851
 C         -6.9910732229        2.9991505232        0.0224772588
 C         -7.3388343931        1.6629155464       -0.0093271332
 C         -6.3274618771        0.7122908862       -0.0017865217
 C         -6.3215157921       -0.7235494305       -0.0516386324
 C         -7.3252616701       -1.6814874056       -0.0910038528
 C         -6.9666106731       -3.0151321358       -0.1076621049
 C         -5.6277078860       -3.3972710146       -0.0676612659
 C         -4.6111745762       -2.4620076385       -0.0279243626
 C         -4.9642172365       -1.1198540284       -0.0395784176
 C         -2.0596788439        0.7681945172        0.9600225195
 C         -0.6831389816        0.7774262394        0.9535474630
 C          2.2136001365        1.2451560974       -0.0156325729
 C          1.5601198737        2.4722274891       -0.1558368302
 C          2.2576617548        3.6779756208       -0.1254529370
 C          3.6251388463        3.6746662469        0.0469316589
 C          4.3097703699        2.4645375821        0.1190213205
 C          3.6400034328        1.2396740269        0.0320013570
 C          6.5393633025       -0.6813028994        0.9581536261
 C          7.9201794340       -0.6795120004        0.9346863662
 H          9.6814341228       -0.0152215374       -0.0899559604
 H          8.4133046131        1.1782501079       -1.8407514915
 H          5.9546211642        1.1797320407       -1.8008826642
 H          5.3614851140       -2.4810770571       -0.2593934855
 H          4.1450116848       -4.6017296100       -0.0901090426
 H          1.6980079733       -4.5920281168        0.3021157711
 H          0.4858289324       -2.4681227964        0.4014638879
 H         -0.1374652940       -1.3319123873       -1.6297026604
 H         -2.5922000794       -1.3209811150       -1.6463171904
 H         -3.5981354500        2.7780534077        0.0476154388
 H         -5.4125558603        4.4431572605        0.0526562759
 H         -7.7624171351        3.7545879467        0.0192097147
 H         -8.3740825204        1.3593010981       -0.0454423714
 H         -8.3632614744       -1.3854449683       -0.1035782838
 H         -7.7316497996       -3.7761976620       -0.1412547278
 H         -5.3779237639       -4.4478276932       -0.0624964040
 H         -3.5777446284       -2.7692872748        0.0245345822
 H         -2.6032968422        1.3310230074        1.7040847646
 H         -0.1491550870        1.3457828785        1.7006704049
 H          0.4914190370        2.4917364344       -0.3019391884
 H          1.7181686528        4.6079480348       -0.2250739042
 H          4.1735624131        4.6024518396        0.1105032484
 H          5.3810366094        2.4743032997        0.2467327301
 H          6.0110086212       -1.1861159442        1.7541680486
 H          8.4693269297       -1.1999444835        1.7059932850
