  63
        -97.99781571
 C         -6.3348226367       -1.2088195748       -1.4622891449
 C         -5.8121133877       -0.2945472020       -0.3385487551
 C         -6.9907945654        0.3180162865        0.4407326945
 C         -4.9789549657       -1.1257365579        0.6166075670
 C         -5.5600391013       -2.1967826227        1.2809830944
 C         -4.8466445998       -2.9853030803        2.1648309687
 C         -3.5113457225       -2.7046838390        2.4010393908
 C         -2.9080676499       -1.6478926976        1.7558458556
 C         -3.6271377161       -0.8484767461        0.8590950404
 N         -2.9938886579        0.2037975195        0.2281577183
 C         -1.6203965081        0.4553706843        0.5138004142
 C         -1.2747995595        1.3398256373        1.5274851844
 C          0.0531821745        1.5976440186        1.8090992736
 C          1.0758730826        0.9725449881        1.0838895965
 N          2.3587498253        1.2167857805        1.3072516739
 C          3.3245196473        0.6098132607        0.6064581438
 C          4.7014900095        0.9675288117        0.8243226583
 C          5.0553106095        1.7583907170        1.9327299780
 C          6.3783483219        2.0859023732        2.1168549315
 C          7.3272317528        1.6327019514        1.2030680536
 C          6.8812095755        0.8748473271        0.1309569452
 N          5.6186174271        0.5600192168       -0.0550592948
 C          2.9521882296       -0.3547288112       -0.3590166375
 C          3.9837553721       -1.1478117815       -1.0634835177
 C          4.2138798232       -0.9561402618       -2.4243953040
 C          5.1572872444       -1.7544762364       -3.0443233185
 C          5.8208021430       -2.7169179341       -2.2981522703
 C          5.4938239254       -2.8435521575       -0.9567842228
 N          4.6003181605       -2.0826511590       -0.3565139160
 N          1.6943678599       -0.5902796335       -0.6234171311
 C          0.7076582501        0.0411152208        0.0438173176
 C         -0.6309283502       -0.1927369219       -0.2252044670
 C         -3.6522185705        1.0255737842       -0.6644204598
 C         -2.9556658224        2.0726308869       -1.2800034478
 C         -3.5850818116        2.9126955316       -2.1717631416
 C         -4.9244111630        2.7243087892       -2.4688827537
 C         -5.6142429143        1.6886407443       -1.8659505696
 C         -5.0065520180        0.8267511332       -0.9637651467
 H         -6.9628653167       -0.6533822395       -2.1532226198
 H         -5.4976988520       -1.6266120919       -2.0182671086
 H         -6.9191074357       -2.0288852917       -1.0546025821
 H         -7.6073018406       -0.4587354680        0.8841197205
 H         -7.6175627058        0.9188030002       -0.2122903806
 H         -6.6151817769        0.9557471685        1.2386585859
 H         -6.6004997514       -2.4275107498        1.1089796143
 H         -5.3298607545       -3.8109505870        2.6644290916
 H         -2.9382844942       -3.3098160864        3.0871914367
 H         -1.8676128654       -1.4311722848        1.9404106491
 H         -2.0550080408        1.8280100229        2.0923066942
 H          0.3298023837        2.2909654745        2.5868611778
 H          4.2773473598        2.0814055962        2.6060543116
 H          6.6803244039        2.6874264110        2.9626127935
 H          8.3737923257        1.8656960660        1.3176414185
 H          7.5673967758        0.5053404712       -0.6210492828
 H          3.6677905337       -0.2004693132       -2.9662081735
 H          5.3722228563       -1.6298180603       -4.0962301856
 H          6.5689749838       -3.3532583903       -2.7448857880
 H          5.9667102467       -3.5886822843       -0.3300646136
 H         -0.8980174045       -0.8884717881       -1.0047883382
 H         -1.9119713380        2.2197563744       -1.0503332911
 H         -3.0296722413        3.7143514618       -2.6347702568
 H         -5.4283449575        3.3768499490       -3.1653411106
 H         -6.6571096152        1.5535577930       -2.1099199351
