  64
       -101.00311555
 C         -6.5350460912       -1.6346362347        0.4393501314
 C         -5.5848302765       -0.4854289733        0.0556280073
 C         -6.3939374159        0.7595176298       -0.3536934404
 C         -4.7342934212       -0.1374383421        1.2603346293
 C         -5.3460366866        0.2717301620        2.4370867441
 C         -4.6189767891        0.5869607426        3.5701827339
 C         -3.2381306841        0.4858593714        3.5419122713
 C         -2.6034774070        0.0851283799        2.3868332793
 C         -3.3359808023       -0.2199432695        1.2332308830
 N         -2.6711885040       -0.6101917156        0.0865844282
 C         -1.2486859785       -0.6614326573        0.0968480239
 C         -0.5986638985       -1.8900360223        0.2773560555
 C          0.7697218829       -1.9271452214        0.2806342779
 C          1.5264145179       -0.7557862852        0.1130469125
 C          0.8771887653        0.4899327981       -0.0622058017
 C         -0.5245098810        0.4980032663       -0.0700537577
 C          1.6667565805        1.6857149994       -0.2254362255
 C          1.0973741263        2.9505281814       -0.3878475280
 C          1.8844316048        4.0813029951       -0.5413528398
 C          1.2722166657        5.3394788242       -0.7009653275
 N          0.7740300776        6.3669132380       -0.8303977165
 C          3.2907934480        3.9781876567       -0.5378195269
 C          3.8671720478        2.7509499715       -0.3788738918
 C          3.0840582095        1.5908779676       -0.2194236344
 C          3.7360654673        0.3358973227       -0.0506888744
 N          5.0558735709        0.2378482050       -0.0457657070
 C          5.6844852631       -0.9246799806        0.1114019964
 C          7.0739192334       -1.0375488806        0.1187736151
 C          7.6842333422       -2.2663576077        0.2842765396
 C          6.9214276664       -3.4148798152        0.4474768401
 C          5.5404977210       -3.3419424954        0.4470421321
 C          4.8905988119       -2.1219818905        0.2831563663
 N          3.5604692153       -2.0073552481        0.2789990139
 C          2.9542148391       -0.8485565801        0.1205235596
 C         -3.3432713788       -0.9565277324       -1.0696467557
 C         -2.6152358391       -1.3358596430       -2.2039027140
 C         -3.2573676840       -1.6957720596       -3.3683112774
 C         -4.6408616626       -1.6783794425       -3.4260423476
 C         -5.3621285057       -1.2888451958       -2.3124327088
 C         -4.7427323831       -0.9219618151       -1.1258709506
 H         -7.1671156109       -1.3518880287        1.2761271184
 H         -5.9586775674       -2.5124359329        0.7253214897
 H         -7.1765129065       -1.9022041126       -0.3953384029
 H         -7.0307831766        0.5437163763       -1.2067538798
 H         -5.7181524072        1.5681034090       -0.6255830650
 H         -7.0226423445        1.0985918505        0.4645260045
 H         -6.4217650608        0.3482700488        2.4771151460
 H         -5.1267258111        0.9034840182        4.4679428390
 H         -2.6542645316        0.7179227516        4.4194843520
 H         -1.5281673630        0.0018290220        2.3707511743
 H         -1.1849426597       -2.7867574188        0.4079372923
 H          1.3033227236       -2.8554648266        0.4143825361
 H         -1.0700706461        1.4183679412       -0.2038463256
 H          0.0261414373        3.0762747212       -0.3953603771
 H          3.8892650100        4.8682636565       -0.6594093802
 H          4.9401932205        2.6361990985       -0.3698100980
 H          7.6554198469       -0.1377793012       -0.0089321104
 H          8.7616369099       -2.3298842843        0.2859037578
 H          7.4052040473       -4.3709538343        0.5756037190
 H          4.9349168529       -4.2261517656        0.5724584913
 H         -1.5372936733       -1.3433648925       -2.1652316099
 H         -2.6771578142       -1.9874827887       -4.2303563280
 H         -5.1548340458       -1.9598021204       -4.3319511354
 H         -6.4392753552       -1.2703785806       -2.3766378001
  64
       -101.00302113
 C         -6.6166215371       -1.4808277901        0.2094583618
 C         -5.5649682208       -0.3606251379        0.1091404588
 C         -6.2575222314        1.0087932450       -0.0248956025
 C         -4.7318037602       -0.3544490469        1.3749570831
 C         -5.3517338570       -0.1833822401        2.6048521065
 C         -4.6367723448       -0.1513157801        3.7879684469
 C         -3.2587724030       -0.2843372307        3.7540013684
 C         -2.6156984764       -0.4512058911        2.5472255857
 C         -3.3380980396       -0.4949826862        1.3487812094
 N         -2.6660746667       -0.6681864809        0.1545655372
 C         -1.2430895244       -0.7155220066        0.1638587349
 C         -0.5795004434       -1.9187011529        0.4395304920
 C          0.7896360156       -1.9390632383        0.4435785779
 C          1.5329191863       -0.7783082568        0.1728249951
 C          0.8689722543        0.4394220287       -0.1101617205
 C         -0.5322711050        0.4331533484       -0.1029249653
 C          1.6426770338        1.6237587279       -0.3893758274
 C          1.0564689487        2.8563923120       -0.6843003424
 C          1.8283687149        3.9772707598       -0.9478986473
 C          1.1968807567        5.2010640788       -1.2424058801
 N          0.6770973709        6.1981689135       -1.4789995898
 C          3.2359093428        3.8963536142       -0.9233474629
 C          3.8285312876        2.6998926619       -0.6385899845
 C          3.0608871102        1.5498956307       -0.3691392311
 C          3.7284885280        0.3251942669       -0.0810481072
 N          5.0494165998        0.2474236664       -0.0591344854
 C          5.6932948600       -0.8862246249        0.2079885582
 C          7.0841344318       -0.9773424502        0.2330772115
 C          7.7107051770       -2.1761505826        0.5160238422
 C          6.9632205559       -3.3157744950        0.7808846692
 C          5.5813863720       -3.2641447454        0.7640324007
 C          4.9152823479       -2.0746156477        0.4831226352
 N          3.5835985811       -1.9818178060        0.4551769754
 C          2.9620305863       -0.8508353307        0.1904573128
 C         -3.3269846675       -0.7398755567       -1.0562445159
 C         -2.5959507628       -0.9703605579       -2.2278747353
 C         -3.2255611085       -1.0398015944       -3.4511012842
 C         -4.5991034512       -0.8809695051       -3.5290597104
 C         -5.3248720814       -0.6647136008       -2.3721454015
 C         -4.7186346256       -0.5956269830       -1.1255596690
 H         -7.2463415917       -1.5022339511       -0.6750863941
 H         -7.2557361678       -1.3370911370        1.0758745782
 H         -6.1222982943       -2.4460600663        0.3027320849
 H         -6.8854023189        1.2105469244        0.8381188537
 H         -6.8780321780        1.0424690327       -0.9159366106
 H         -5.5104375616        1.7970409673       -0.0969967196
 H         -6.4237794132       -0.0669768025        2.6472921375
 H         -5.1510865398       -0.0179204822        4.7269720887
 H         -2.6834083119       -0.2552958488        4.6667727489
 H         -1.5415527389       -0.5474712858        2.5236061426
 H         -1.1549229052       -2.8083729952        0.6449458554
 H          1.3340486968       -2.8470844308        0.6523438027
 H         -1.0890502758        1.3328715024       -0.3101569748
 H         -0.0163080547        2.9639342560       -0.7147894726
 H          3.8226058172        4.7784953569       -1.1301410379
 H          4.9030065615        2.6024819121       -0.6127794242
 H          7.6536504933       -0.0847848163        0.0255682582
 H          8.7888751346       -2.2229814773        0.5305796327
 H          7.4597125731       -4.2481931120        1.0014198805
 H          4.9875679313       -4.1416165871        0.9682419790
 H         -1.5262826191       -1.0975452597       -2.1695610516
 H         -2.6436296146       -1.2176577466       -4.3424906184
 H         -5.1024257998       -0.9278269286       -4.4821985206
 H         -6.3945641842       -0.5447758489       -2.4495820451
  64
       -101.00299546
 C         -6.4804932301       -1.7712057097        0.0863143986
 C         -5.5893189801       -0.5175757613        0.1633100769
 C         -6.4596608502        0.7511917793        0.2292718940
 C         -4.7503960052       -0.5901076202        1.4223357966
 C         -5.3764841082       -0.6430989907        2.6600440227
 C         -4.6613446093       -0.6793739033        3.8426507290
 C         -3.2777684283       -0.6428646102        3.8002873445
 C         -2.6296538190       -0.5930795150        2.5857253153
 C         -3.3500525277       -0.5877798415        1.3848454615
 N         -2.6708668793       -0.5592670992        0.1803831427
 C         -1.2508181545       -0.6131569303        0.1920466423
 C         -0.6051167796       -1.8138464937        0.5204041471
 C          0.7627110507       -1.8567652920        0.5316105024
 C          1.5257765979       -0.7237697912        0.2046222657
 C          0.8824190102        0.4886504015       -0.1414589326
 C         -0.5187818462        0.5103259978       -0.1250766133
 C          1.6779351059        1.6387340964       -0.4946158877
 C          1.1147286223        2.8604354117       -0.8688277087
 C          1.9073501274        3.9456552699       -1.2095908828
 C          1.2989674986        5.1596149186       -1.5820970125
 N          0.7959375827        6.1469047951       -1.8861338833
 C          3.3131218822        3.8384755145       -1.1859762390
 C          3.8835145178        2.6523297350       -0.8237565352
 C          3.0947786800        1.5385458179       -0.4745403249
 C          3.7407025799        0.3234371007       -0.1075092905
 N          5.0600442581        0.2238727924       -0.0744384160
 C          5.6826606922       -0.9003834774        0.2709422357
 C          7.0714974220       -1.0139485417        0.3110014457
 C          7.6752429635       -2.2009068290        0.6802994742
 C          6.9064537980       -3.3065059390        1.0182036080
 C          5.5259420477       -3.2329014418        0.9864636895
 C          4.8825481576       -2.0545686474        0.6191456912
 N          3.5531652514       -1.9423535092        0.5718307136
 C          2.9527898365       -0.8199206654        0.2325532309
 C         -3.3337394041       -0.5038839152       -1.0328515148
 C         -2.6017489781       -0.5116592078       -2.2266068375
 C         -3.2354433138       -0.4378484238       -3.4474757790
 C         -4.6169209396       -0.3639097205       -3.5042706346
 C         -5.3445833039       -0.3856775259       -2.3291289235
 C         -4.7331947229       -0.4605807274       -1.0851533089
 H         -5.8602313578       -2.6640357288        0.0343695526
 H         -7.1138875738       -1.7421536788       -0.7955637389
 H         -7.1187938932       -1.8470752453        0.9618568301
 H         -7.1040327267        0.7338526859        1.1034364796
 H         -7.0864133821        0.8379474868       -0.6534669422
 H         -5.8248565390        1.6332813002        0.2880639755
 H         -6.4545007035       -0.6545266230        2.7088655802
 H         -5.1799698579       -0.7244602253        4.7876344002
 H         -2.7017642959       -0.6502538761        4.7129877653
 H         -1.5522315140       -0.5522305994        2.5603916624
 H         -1.1951994645       -2.6846370694        0.7624475000
 H          1.2910813613       -2.7630567926        0.7842159992
 H         -1.0583914014        1.4112653523       -0.3695716450
 H          0.0441653836        2.9861763288       -0.9052110744
 H          3.9160262756        4.6923242809       -1.4554753957
 H          4.9558897982        2.5350341225       -0.7964824332
 H          7.6578683017       -0.1475269074        0.0475419766
 H          8.7523272131       -2.2646280954        0.7070190596
 H          7.3851199859       -4.2295966118        1.3065853080
 H          4.9154583449       -4.0838081571        1.2462543801
 H         -1.5262817015       -0.5818492264       -2.1921682264
 H         -2.6493632261       -0.4410158782       -4.3537960974
 H         -5.1241248118       -0.3006521228       -4.4543526172
 H         -6.4213002821       -0.3455826720       -2.3889628839
  64
       -101.00099810
 C         -6.9354952361       -0.1876603507        0.0316417127
 C         -5.4240698249        0.0367682136       -0.0241680505
 C         -5.1646391915        1.5254086560       -0.3509773165
 C         -4.7434051987       -0.2466916918        1.2998388830
 C         -5.4029725355       -0.2005910686        2.5169695523
 C         -4.7195877872       -0.3192157998        3.7161739553
 C         -3.3439424519       -0.4698052408        3.7120814938
 C         -2.6645629341       -0.5425508805        2.5140597128
 C         -3.3548563075       -0.4545436767        1.3031863885
 N         -2.6781786872       -0.5950896651        0.1033307812
 C         -1.2566209115       -0.6572640582        0.1160098714
 C         -0.5955462999       -1.8737251656        0.3435786969
 C          0.7724583499       -1.8989314942        0.3508516375
 C          1.5195224949       -0.7286088775        0.1352096362
 C          0.8604775191        0.5026838832       -0.0915913121
 C         -0.5420034565        0.4991853121       -0.0949154140
 C          1.6403498668        1.6959920355       -0.3085631856
 C          1.0612689030        2.9491243405       -0.5196738322
 C          1.8391712901        4.0777988333       -0.7264165422
 C          1.2137465259        5.3230615455       -0.9302221249
 N          0.6954392552        6.3354816682       -1.0934429295
 C          3.2460338985        3.9840587575       -0.7315675970
 C          3.8321287013        2.7684972195       -0.5249275366
 C          3.0583691564        1.6114355570       -0.3081715697
 C          3.7205080713        0.3703043161       -0.0854689273
 N          5.0407131578        0.2805194071       -0.0841417047
 C          5.6786621812       -0.8670939345        0.1325508088
 C          7.0686884184       -0.9709316346        0.1359616422
 C          7.6883663021       -2.1837220514        0.3707975499
 C          6.9345047355       -3.3249048438        0.6093044253
 C          5.5531002690       -3.2612488360        0.6118315210
 C          4.8939202433       -2.0580330964        0.3773331126
 N          3.5632451496       -1.9533334683        0.3675381847
 C          2.9477172666       -0.8097305681        0.1476373945
 C         -3.3627239077       -0.9644484163       -1.0418532387
 C         -2.6803942172       -1.5405443220       -2.1156492824
 C         -3.3689455919       -1.9731976354       -3.2296426480
 C         -4.7457241252       -1.8447796302       -3.2818813502
 C         -5.4209613833       -1.2402195614       -2.2340582677
 C         -4.7524258268       -0.7747470385       -1.1139290697
 H         -7.3860263847        0.4537441049        0.7837389099
 H         -7.1651814313       -1.2250496333        0.2641459416
 H         -7.3930878979        0.0736955270       -0.9181664928
 H         -5.5917918119        2.1581720889        0.4240921014
 H         -5.6161618534        1.7823781801       -1.3065385588
 H         -4.0975359223        1.7248453031       -0.4092546525
 H         -6.4706123006       -0.0591866521        2.5488965098
 H         -5.2609366541       -0.2768373193        4.6486062214
 H         -2.7986102313       -0.5399668411        4.6408783435
 H         -1.5938208936       -0.6752751450        2.5104554159
 H         -1.1748791667       -2.7695150628        0.5094692354
 H          1.3141432060       -2.8165382979        0.5218417482
 H         -1.0932597102        1.4099781608       -0.2650916028
 H         -0.0107499203        3.0678204407       -0.5238995238
 H          3.8375469173        4.8717900435       -0.8965617645
 H          4.9059707745        2.6612634658       -0.5200270943
 H          7.6434219221       -0.0768021012       -0.0491368949
 H          8.7661400030       -2.2401186385        0.3685524933
 H          7.4253975934       -4.2680410001        0.7937099803
 H          4.9541718612       -4.1400213706        0.7944351692
 H         -1.6083677655       -1.6526739352       -2.0696400000
 H         -2.8294117165       -2.4182032363       -4.0517245834
 H         -5.2942087174       -2.1958110488       -4.1422512537
 H         -6.4895974918       -1.1273501613       -2.3121738591
  64
       -101.00095073
 C         -5.2918394751       -2.6139029237        0.1151334289
 C         -5.4697990475       -1.0784451118        0.1502759803
 C         -6.9671811981       -0.7672245884        0.1667788825
 C         -4.7594594015       -0.5795006868        1.3916581572
 C         -5.4035705038       -0.3677020731        2.5999409826
 C         -4.7020359775       -0.0369816482        3.7473549198
 C         -3.3241495402        0.0821189303        3.7005325937
 C         -2.6599398331       -0.1010849758        2.5060385353
 C         -3.3658078569       -0.4240605100        1.3445674416
 N         -2.6925239234       -0.5483168357        0.1395855012
 C         -1.2732661058       -0.5917176543        0.1614007563
 C         -0.6435951264       -1.7952881074        0.5060617489
 C          0.7238050448       -1.8540616843        0.5325369729
 C          1.5028121240       -0.7307589726        0.2112970024
 C          0.8760427322        0.4914175065       -0.1310583519
 C         -0.5247154392        0.5276131448       -0.1343804236
 C          1.6869903020        1.6384444697       -0.4588954979
 C          1.1402777187        2.8718834625       -0.8194225465
 C          1.9477693864        3.9546644860       -1.1322271763
 C          1.3554096507        5.1798915051       -1.4930928602
 N          0.8647991377        6.1753984854       -1.7906873440
 C          3.3518904366        3.8331707403       -1.0929243863
 C          3.9062321792        2.6346113591       -0.7463786992
 C          3.1023041504        1.5227708506       -0.4268668266
 C          3.7317082649        0.2928835782       -0.0808370462
 N          5.0493118315        0.1737927519       -0.0538177713
 C          5.6579198046       -0.9655174343        0.2655270634
 C          7.0448533797       -1.1016481921        0.2898798164
 C          7.6333295073       -2.3049431709        0.6303343067
 C          6.8504713614       -3.4042508287        0.9556936708
 C          5.4710314692       -3.3081878029        0.9397067065
 C          4.8425989711       -2.1137303561        0.5995018669
 N          3.5150320390       -1.9802494629        0.5627691228
 C          2.9285217757       -0.8452138457        0.2418524231
 C         -3.3738105786       -0.4005455388       -1.0582168174
 C         -2.6867688169       -0.1232129258       -2.2425521568
 C         -3.3742697073        0.1016613945       -3.4168699653
 C         -4.7568578737        0.0561058149       -3.4262329168
 C         -5.4390596819       -0.2752918529       -2.2672516683
 C         -4.7730036748       -0.5308016804       -1.0798189026
 H         -5.7510808333       -3.0630214091        0.9931592033
 H         -4.2370769262       -2.8777287740        0.1032884818
 H         -5.7592198110       -3.0234592167       -0.7777335155
 H         -7.4393502801       -1.2182177005        1.0345323695
 H         -7.4525527940       -1.1895682899       -0.7080620494
 H         -7.1393348659        0.3063135946        0.1861567269
 H         -6.4741557460       -0.4682156289        2.6674247707
 H         -5.2319846977        0.1177682366        4.6746571040
 H         -2.7657153272        0.3297478859        4.5905006489
 H         -1.5881424791        0.0155957265        2.4637971448
 H         -1.2445726881       -2.6584619517        0.7483490293
 H          1.2389764776       -2.7654467387        0.7937797323
 H         -1.0500598334        1.4403466197       -0.3661949771
 H          0.0714064537        3.0103116745       -0.8643642033
 H          3.9664519243        4.6857553837       -1.3389124005
 H          4.9771127806        2.5055959646       -0.7096185179
 H          7.6422260210       -0.2399296157        0.0357795267
 H          8.7093239570       -2.3867111700        0.6428621622
 H          7.3171645801       -4.3400516033        1.2224037507
 H          4.8498796066       -4.1542696241        1.1897894884
 H         -1.6092526296       -0.0855356572       -2.2429892569
 H         -2.8274696205        0.3193846375       -4.3217192779
 H         -5.3041807125        0.2512475343       -4.3354400931
 H         -6.5132932475       -0.3444899930       -2.3102791226
  64
       -101.00086083
 C         -5.3194481684       -2.5954633026       -0.0025194041
 C         -5.4752677660       -1.0654261342        0.1547954481
 C         -6.9675886341       -0.7366992412        0.2258879417
 C         -4.7362412419       -0.6725936689        1.4172995707
 C         -5.3550139877       -0.5705830485        2.6530376657
 C         -4.6323202122       -0.3289732202        3.8092452445
 C         -3.2578075243       -0.1843981515        3.7423514539
 C         -2.6188473358       -0.2615382803        2.5230151040
 C         -3.3451179296       -0.5043472437        1.3542378752
 N         -2.6923249024       -0.5338353824        0.1312311456
 C         -1.2745512850       -0.5826701606        0.1326439579
 C         -0.6464457718       -1.7897346399        0.4712579625
 C          0.7203275620       -1.8513273449        0.5008014862
 C          1.5021953921       -0.7295894527        0.1801686768
 C          0.8781205779        0.4903585236       -0.1736407715
 C         -0.5224778594        0.5336810270       -0.1662330563
 C          1.6917935965        1.6300906350       -0.5195790288
 C          1.1482078904        2.8477363775       -0.9340074723
 C          1.9580790391        3.9229099244       -1.2663323443
 C          1.3698046543        5.1306970652       -1.6885803955
 N          0.8851650932        6.1145141561       -2.0317790967
 C          3.3614642840        3.8102664034       -1.1886048415
 C          3.9128596031        2.6262449198       -0.7913736848
 C          3.1066840562        1.5201962057       -0.4576979674
 C          3.7328684524        0.3003740934       -0.0729729106
 N          5.0498118758        0.1905239304       -0.0014888293
 C          5.6550033295       -0.9420533742        0.3467405585
 C          7.0411323813       -1.0667826026        0.4248519070
 C          7.6258285194       -2.2646183992        0.7900119980
 C          6.8401194174       -3.3703664948        1.0856009201
 C          5.4615282188       -3.2852973501        1.0178618201
 C          4.8369861344       -2.0957773016        0.6543952453
 N          3.5105540200       -1.9711927246        0.5746569034
 C          2.9271911229       -0.8401316829        0.2351542388
 C         -3.3955223928       -0.3123435147       -1.0423065377
 C         -2.7306217571        0.0273989705       -2.2231867738
 C         -3.4388716297        0.3309642481       -3.3668957658
 C         -4.8217508699        0.3016597499       -3.3496344425
 C         -5.4827394543       -0.0988567208       -2.2005240948
 C         -4.7959130310       -0.4346397599       -1.0451971082
 H         -5.7665583083       -3.1055790024        0.8477984244
 H         -4.2687849687       -2.8704426506       -0.0573601598
 H         -5.8102453688       -2.9293086413       -0.9139897527
 H         -7.4303461090       -1.2492173331        1.0639653247
 H         -7.4763002898       -1.0810075026       -0.6696643428
 H         -7.1226720235        0.3342101704        0.3346720628
 H         -6.4226448603       -0.6897355713        2.7347778753
 H         -5.1429618578       -0.2615994061        4.7573786714
 H         -2.6823090704       -0.0006972020        4.6367137292
 H         -1.5501955822       -0.1238909110        2.4684446664
 H         -1.2497908835       -2.6515406859        0.7128428969
 H          1.2331271582       -2.7629366340        0.7658380732
 H         -1.0431902594        1.4522259763       -0.3846722596
 H          0.0803619383        2.9768827766       -1.0142628733
 H          3.9779185762        4.6574989683       -1.4482594069
 H          4.9831285111        2.5039788462       -0.7267114734
 H          7.6409917213       -0.2006969352        0.1922291361
 H          8.7011770051       -2.3369825250        0.8452940170
 H          7.3037430377       -4.3022436752        1.3703588916
 H          4.8378470236       -4.1356163972        1.2465063187
 H         -1.6530482490        0.0497139911       -2.2468568119
 H         -2.9076715212        0.5971776661       -4.2679504063
 H         -5.3855927888        0.5601171181       -4.2324281275
 H         -6.5580287040       -0.1580309875       -2.2266041667
  64
       -101.00077766
 C         -5.3061350730       -2.5937183287       -0.0202825834
 C         -5.4715893454       -1.0688287590        0.1737094045
 C         -6.9649526833       -0.7560998694        0.2812351759
 C         -4.7100207300       -0.6963291801        1.4285946080
 C         -5.3058160035       -0.6053883689        2.6763276247
 C         -4.5601859551       -0.3823273615        3.8217343240
 C         -3.1862864925       -0.2453653995        3.7308564207
 C         -2.5703631705       -0.3099208260        2.4988581340
 C         -3.3196321827       -0.5333934898        1.3409162722
 N         -2.6918630730       -0.5473855300        0.1037829225
 C         -1.2746091247       -0.6000930063        0.0807114958
 C         -0.6455385624       -1.8122342403        0.3996799987
 C          0.7211952844       -1.8734175623        0.4306430881
 C          1.5027187531       -0.7460805405        0.1292972474
 C          0.8778118471        0.4749001543       -0.2194158509
 C         -0.5227226516        0.5185111752       -0.2102663839
 C          1.6907960551        1.6185340868       -0.5536879520
 C          1.1475677608        2.8313713631       -0.9823329904
 C          1.9570778069        3.9112843354       -1.3000775129
 C          1.3708558310        5.1136359273       -1.7402032583
 N          0.8830852562        6.0929374400       -2.0918385064
 C          3.3591278000        3.8088092427       -1.1910866634
 C          3.9102480727        2.6287998215       -0.7817352202
 C          3.1047969077        1.5173010558       -0.4649542868
 C          3.7308133195        0.3008695990       -0.0694600162
 N          5.0460342335        0.2025586247        0.0391725285
 C          5.6514263056       -0.9256839793        0.4006679236
 C          7.0353826705       -1.0357146532        0.5256639013
 C          7.6204851050       -2.2290284400        0.9048104848
 C          6.8373638103       -3.3451314646        1.1663563374
 C          5.4609768030       -3.2747793477        1.0513280854
 C          4.8359441054       -2.0897734274        0.6741934898
 N          3.5113681134       -1.9774875760        0.5546287083
 C          2.9271162194       -0.8486169518        0.2093753202
 C         -3.4181147806       -0.2914785881       -1.0487107932
 C         -2.7776996879        0.0752212964       -2.2348575059
 C         -3.5101599808        0.4161757390       -3.3527623807
 C         -4.8925143416        0.3980181649       -3.3038301870
 C         -5.5303428206       -0.0310908680       -2.1518410995
 C         -4.8191386928       -0.4058026953       -1.0236600681
 H         -5.7287876709       -3.1259451037        0.8291685273
 H         -4.2547829642       -2.8581136628       -0.1059286572
 H         -5.8158338375       -2.9121325078       -0.9270451713
 H         -7.4059232621       -1.2934968451        1.1156648029
 H         -7.4874109242       -1.0841517698       -0.6126117552
 H         -7.1285091574        0.3103026644        0.4189058056
 H         -6.3726827527       -0.7179406422        2.7757470780
 H         -5.0526505628       -0.3223551070        4.7799596948
 H         -2.5930221934       -0.0761372880        4.6164679297
 H         -1.5022478963       -0.1765840858        2.4268830267
 H         -1.2484358793       -2.6773205655        0.6305012144
 H          1.2340113761       -2.7875677427        0.6868434387
 H         -1.0424882841        1.4411755312       -0.4129359630
 H          0.0807246811        2.9520420832       -1.0869679933
 H          3.9750437566        4.6600865939       -1.4383289749
 H          4.9798066963        2.5135417839       -0.6958162700
 H          7.6331125317       -0.1617094388        0.3185408881
 H          8.6940489017       -2.2898274250        0.9973224009
 H          7.3012341259       -4.2733770378        1.4623921509
 H          4.8393588608       -4.1330928967        1.2543773101
 H         -1.7007474030        0.0890735908       -2.2831284424
 H         -2.9980851078        0.7025873220       -4.2587319327
 H         -5.4743051524        0.6872516774       -4.1651645325
 H         -6.6064369220       -0.0807902222       -2.1535726547
  64
       -101.00043827
 C         -6.7964664988        0.3166799198       -0.1628013679
 C         -5.2702594160        0.2457683527       -0.1787243316
 C         -4.7295096005        1.6092723290       -0.6681847738
 C         -4.6779897779        0.0013907636        1.1934306676
 C         -5.3516771657        0.2435435006        2.3785689385
 C         -4.7144645097        0.1337687271        3.6040944659
 C         -3.3751446721       -0.2118356212        3.6576289287
 C         -2.6876965526       -0.4831142159        2.4927894885
 C         -3.3339710082       -0.3961305929        1.2587839510
 N         -2.6654191596       -0.7482882021        0.0975999476
 C         -1.2469209493       -0.8046852373        0.1100297896
 C         -0.5546725833       -2.0135596193        0.2716406305
 C          0.8148832479       -2.0041733549        0.2706671266
 C          1.5339139370       -0.8072899016        0.1156468502
 C          0.8427213086        0.4181707151       -0.0342263395
 C         -0.5572269109        0.3790728888       -0.0298946035
 C          1.5871843002        1.6426463358       -0.1932105819
 C          0.9718735953        2.8871450135       -0.3418198286
 C          1.7165450287        4.0457179454       -0.5004363591
 C          1.0525492381        5.2790351207       -0.6457637364
 N          0.5011458208        6.2792121685       -0.7720558803
 C          3.1253313829        3.9916759604       -0.5156669484
 C          3.7463582358        2.7847621862       -0.3683807711
 C          3.0064425878        1.5971972482       -0.2044164490
 C          3.7021483182        0.3642505936       -0.0501977517
 N          5.0243686219        0.3129015556       -0.0543646821
 C          5.6962586324       -0.8266367192        0.0869950171
 C          7.0888348988       -0.8880716019        0.0871970213
 C          7.7449502822       -2.0951106016        0.2367001647
 C          7.0256764354       -3.2726102472        0.3902674412
 C          5.6428381867       -3.2507106147        0.3967753355
 C          4.9472568490       -2.0541601737        0.2498068905
 N          3.6138878648       -1.9869125594        0.2555828590
 C          2.9641979746       -0.8499586136        0.1139208036
 C         -3.3844702635       -1.1741854502       -1.0070917631
 C         -2.7890215890       -1.9715363674       -1.9854415659
 C         -3.5383883479       -2.4618238074       -3.0352053214
 C         -4.8880760847       -2.1680112558       -3.1179297612
 C         -5.4704947137       -1.3346357960       -2.1764620663
 C         -4.7356086286       -0.8071342502       -1.1286102737
 H         -7.1282103937        1.1166262253        0.4934722466
 H         -7.2271103091       -0.6231641635        0.1749125002
 H         -7.1731569620        0.5447278280       -1.1561562669
 H         -3.6448220882        1.5934477060       -0.7319796732
 H         -5.0237372786        2.3974235865        0.0215970289
 H         -5.1269924182        1.8366201945       -1.6547934860
 H         -6.3891962740        0.5343268680        2.3622745772
 H         -5.2627540208        0.3298241541        4.5126153583
 H         -2.8680030131       -0.2856466554        4.6075209048
 H         -1.6498100550       -0.7767539757        2.5311327672
 H         -1.1069132867       -2.9315818959        0.4054489038
 H          1.3786745661       -2.9162977656        0.3934051374
 H         -1.1303462329        1.2858879704       -0.1378785741
 H         -0.1029326540        2.9764005724       -0.3350231978
 H          3.6908968190        4.9023516055       -0.6420193399
 H          4.8227923021        2.7079760038       -0.3735434789
 H          7.6358507717        0.0340525554       -0.0333656904
 H          8.8239506038       -2.1186672913        0.2323947325
 H          7.5449520215       -4.2115778460        0.5049644994
 H          5.0711573564       -4.1582255490        0.5146426450
 H         -1.7387599764       -2.2081246786       -1.9189848067
 H         -3.0676062265       -3.0810058066       -3.7835545323
 H         -5.4838544805       -2.5639887167       -3.9257174736
 H         -6.5140865841       -1.0884665859       -2.2829758390
  64
       -100.99943581
 C         -3.7573616032       -1.6028134930       -1.7158345071
 C         -4.7933295227       -0.9972807472       -0.7470901477
 C         -6.1861068588       -1.2436208620       -1.3251554877
 C         -4.6130078350       -1.6240803578        0.6241606105
 C         -5.4765444087       -2.5535670402        1.1813016508
 C         -5.2471931260       -3.0691422651        2.4462955723
 C         -4.1648424482       -2.6336357482        3.1897098522
 C         -3.2970992208       -1.6985487989        2.6575571816
 C         -3.4980085474       -1.2211620029        1.3677191353
 N         -2.6553737219       -0.2389196237        0.8126491345
 C         -1.2872280124       -0.3766353424        0.6970091080
 C         -0.6188426149       -1.4976791662        1.2331906794
 C          0.7382820792       -1.6077562338        1.1257604178
 C          1.5064216673       -0.6327367926        0.4680730661
 C          0.8475805163        0.4525987802       -0.1534818747
 C         -0.5389524118        0.5443709517       -0.0298367460
 C          1.6266946084        1.4234863409       -0.8885744334
 C          1.0527064222        2.5049267705       -1.5561666732
 C          1.8294298891        3.4210280394       -2.2519587849
 C          1.2070873628        4.4942702444       -2.9155959907
 N          0.6942881315        5.3704524122       -3.4548502544
 C          3.2314939584        3.2783975639       -2.2949516279
 C          3.8138006859        2.2278976471       -1.6474974020
 C          3.0399434006        1.2848548321       -0.9394418430
 C          3.6980986653        0.2076129676       -0.2880030612
 N          5.0146288433        0.0706352898       -0.3149714471
 C          5.6544094235       -0.9266603612        0.2794508087
 C          7.0406301534       -1.0709090574        0.2557414642
 C          7.6576282877       -2.1310984203        0.8930446995
 C          6.9046881794       -3.0782804089        1.5719473805
 C          5.5257176964       -2.9702661054        1.6181497970
 C          4.8682661318       -1.9182695178        0.9904705528
 N          3.5446857072       -1.7694389505        1.0083185241
 C          2.9245983511       -0.7714493595        0.4189304727
 C         -3.3785715531        0.8099752405        0.2114487506
 C         -3.0596288073        2.1390011667        0.4662317048
 C         -3.8111663843        3.1495483348       -0.1027152537
 C         -4.8958445726        2.8328345529       -0.9015161993
 C         -5.2406286285        1.5088100610       -1.1170611937
 C         -4.4923394269        0.4799953002       -0.5670793425
 H         -3.8463048629       -1.1309069590       -2.6921225475
 H         -3.9359508688       -2.6703207974       -1.8262964341
 H         -2.7414830718       -1.4610625306       -1.3591900903
 H         -6.9564727770       -0.8334951977       -0.6761079669
 H         -6.3570113738       -2.3098092275       -1.4500939801
 H         -6.2692601758       -0.7863705118       -2.3077752761
 H         -6.3410295144       -2.8902598657        0.6328925166
 H         -5.9272283928       -3.7998634106        2.8567421536
 H         -4.0025033761       -3.0085971525        4.1887225649
 H         -2.4770089136       -1.3174403114        3.2471747546
 H         -1.1782002996       -2.2870358565        1.7072419708
 H          1.2536820991       -2.4585446406        1.5442199692
 H         -1.0566693441        1.3442941277       -0.5280877182
 H         -0.0155331219        2.6542733500       -1.5507540317
 H          3.8229054200        3.9998839621       -2.8381927661
 H          4.8840142208        2.0894230046       -1.6612257347
 H          7.6155384965       -0.3284632777       -0.2755708301
 H          8.7327897647       -2.2182765726        0.8602564738
 H          7.3918686185       -3.9032685289        2.0680924845
 H          4.9273057636       -3.6983862100        2.1435843189
 H         -2.2353685530        2.3737859988        1.1230132551
 H         -3.5560555357        4.1808315037        0.0879189697
 H         -5.4852781563        3.6185114807       -1.3486746756
 H         -6.1027686129        1.2900533387       -1.7254856519
