  64
  -100.621929007100       0.484236378319978      !
 C         -6.4859328927       -1.5698484088       -0.7808090876
 C         -5.5913174368       -0.5095464015       -0.1121307157
 C         -6.4581212017        0.5765995252        0.5516126559
 C         -4.7566653040       -1.1790798183        0.9599136921
 C         -5.3868841159       -1.8152070297        2.0205184588
 C         -4.6756615906       -2.4158293933        3.0426311188
 C         -3.2918546679       -2.3692137231        3.0248543531
 C         -2.6396934521       -1.7470671658        1.9830715374
 C         -3.3562077265       -1.1648798607        0.9300852859
 N         -2.6730709855       -0.5663731491       -0.1129628952
 C         -1.2532322251       -0.6251371430       -0.1264987439
 C         -0.6121341392       -1.8392375754       -0.4117315059
 C          0.7555180507       -1.8879335293       -0.4204933849
 C          1.5229694230       -0.7397468270       -0.1644566123
 C          0.8843066971        0.4931245416        0.1108287234
 C         -0.5168695765        0.5101047298        0.1336053618
 C          1.6843428636        1.6687029054        0.3521083158
 C          1.1259483175        2.9228522411        0.6072457462
 C          1.9228587619        4.0355554569        0.8283697584
 C          1.3192601830        5.2822772133        1.0812370873
 N          0.8201246094        6.2967649575        1.2859249263
 C          3.3282250875        3.9243382053        0.7998111895
 C          3.8939491462        2.7071183363        0.5511653313
 C          3.1008129043        1.5652724691        0.3238028131
 C          3.7419666156        0.3200062734        0.0656310103
 N          5.0608957369        0.2113086922        0.0488976032
 C          5.6790797795       -0.9437246224       -0.1848495044
 C          7.0674395247       -1.0683468172       -0.2020469677
 C          7.6664910120       -2.2898044663       -0.4448189089
 C          6.8933617707       -3.4191333076       -0.6781704060
 C          5.5131823167       -3.3336154413       -0.6727753637
 C          4.8744510516       -2.1205155431       -0.4324476877
 N          3.5455639167       -1.9938526667       -0.4221834664
 C          2.9495956764       -0.8434323881       -0.1839181163
 C         -3.3318721813        0.0654664204       -1.1527539118
 C         -2.5960726219        0.6267676471       -2.2036878538
 C         -3.2256170070        1.2783207507       -3.2413245608
 C         -4.6066807667        1.3761235766       -3.2577719601
 C         -5.3381795763        0.7977681764       -2.2373118102
 C         -4.7310182649        0.1342925442       -1.1799391022
 H         -5.8681430782       -2.3315553840       -1.2527272259
 H         -7.1163994654       -1.1197891944       -1.5421894582
 H         -7.1272669226       -2.0527368724       -0.0491890590
 H         -7.1053493336        0.1457912739        1.3100185354
 H         -7.0817730737        1.0777130503       -0.1829053625
 H         -5.8209104782        1.3204176464        1.0261777639
 H         -6.4650811581       -1.8441497489        2.0563984259
 H         -5.1974538753       -2.9054050919        3.8501257075
 H         -2.7188129929       -2.8147606880        3.8235836945
 H         -1.5620794584       -1.7035247535        1.9818925180
 H         -1.2055578041       -2.7172530019       -0.6166608867
 H          1.2803980641       -2.8067934725       -0.6315535246
 H         -1.0530305952        1.4204308815        0.3492107250
 H          0.0558831221        3.0550934352        0.6339463037
 H          3.9345086687        4.8005601927        0.9725435455
 H          4.9658805684        2.5866438479        0.5205091213
 H          7.6572074072       -0.1839059449       -0.0180188807
 H          8.7432911475       -2.3629891456       -0.4503223451
 H          7.3683735354       -4.3696565787       -0.8659230330
 H          4.8993593969       -4.2025777021       -0.8526358788
 H         -1.5209333461        0.5442162365       -2.2055104471
 H         -2.6366371778        1.7067476110       -4.0378605661
 H         -5.1106378487        1.8883299676       -4.0624985831
 H         -6.4145756312        0.8660483822       -2.2721901390
  64
  -100.621316996600       0.253394311371009      !
 C         -6.5412177914       -1.6186102558       -0.4055394151
 C         -5.5863876681       -0.4298162999       -0.1913001595
 C         -6.3904990621        0.8625582093        0.0437816330
 C         -4.7387068414       -0.7041455362        1.0342646707
 C         -5.3530218838       -0.9053423433        2.2624874113
 C         -4.6286831631       -1.1736665788        3.4093215135
 C         -3.2480574643       -1.2546190963        3.3380751677
 C         -2.6108774430       -1.0564773229        2.1329531633
 C         -3.3405637010       -0.7693987331        0.9729651150
 N         -2.6732411479       -0.5662111414       -0.2196941635
 C         -1.2509362958       -0.6219894784       -0.2331884335
 C         -0.6051243979       -1.7898806209       -0.6615986974
 C          0.7631283682       -1.8296842304       -0.6745419112
 C          1.5238074114       -0.7240492140       -0.2601874374
 C          0.8788254116        0.4563536518        0.1810278397
 C         -0.5228108496        0.4729820989        0.1760174625
 C          1.6724373414        1.5812145804        0.6109401275
 C          1.1073128967        2.7719104957        1.0726800922
 C          1.8981915135        3.8350454585        1.4800252759
 C          1.2902064154        5.0187508193        1.9409866998
 N          0.7954710052        5.9849304188        2.3182107045
 C          3.3042244891        3.7370026466        1.4357785823
 C          3.8764669788        2.5809312526        0.9889835441
 C          3.0894264405        1.4892096251        0.5728467859
 C          3.7371835653        0.3037811525        0.1214806971
 N          5.0566740974        0.2098793790        0.0807561319
 C          5.6813457462       -0.8887352242       -0.3365655831
 C          7.0704099003       -0.9971092411       -0.3821324047
 C          7.6765618547       -2.1578376050       -0.8238731553
 C          6.9098512893       -3.2412953349       -1.2311621859
 C          5.5291510011       -3.1713395338       -1.1985975452
 C          4.8833833270       -2.0189910598       -0.7597261297
 N          3.5536178292       -1.9108562575       -0.7104120369
 C          2.9512964898       -0.8149831751       -0.2959914986
 C         -3.3426207067       -0.3143587350       -1.4016484559
 C         -2.6120631654       -0.1077745864       -2.5781150694
 C         -3.2515057221        0.1359451102       -3.7737034110
 C         -4.6347495747        0.1845507469       -3.8180306564
 C         -5.3584419973       -0.0032244099       -2.6548028266
 C         -4.7417856302       -0.2513281675       -1.4364583646
 H         -7.1751384069       -1.7680728590        0.4636324523
 H         -5.9683632938       -2.5286133977       -0.5736007418
 H         -7.1807833318       -1.4515591738       -1.2674135645
 H         -7.0252318349        1.0838368001       -0.8094504044
 H         -5.7114613649        1.6998773374        0.1928614504
 H         -7.0208293177        0.7714207468        0.9236123020
 H         -6.4286430080       -0.8528426493        2.3327379753
 H         -5.1383809699       -1.3231616503        4.3483788222
 H         -2.6663346615       -1.4731266594        4.2205369963
 H         -1.5357715902       -1.1263678965        2.0804953615
 H         -1.1944621982       -2.6373528433       -0.9768054512
 H          1.2935561315       -2.7110416743       -1.0005038526
 H         -1.0652217422        1.3474248488        0.4981175016
 H          0.0364854284        2.8903463278        1.1247338714
 H          3.9057064593        4.5742872538        1.7557184430
 H          4.9491103553        2.4714013476        0.9435551503
 H          7.6549693409       -0.1483164501       -0.0629489617
 H          8.7537625744       -2.2188473200       -0.8513168855
 H          7.3903912896       -4.1441288487       -1.5754100158
 H          4.9205647893       -4.0052739684       -1.5123803780
 H         -1.5342777605       -0.1373173884       -2.5462255763
 H         -2.6693894354        0.2898412453       -4.6694248633
 H         -5.1466337191        0.3729847340       -4.7488927952
 H         -6.4353176498        0.0481570518       -2.7038682874
  64
  -100.621226753400       0.230315919548595      !
 C         -6.6213640642       -1.3709913636       -0.5425172119
 C         -5.5663114316       -0.3448237318       -0.0900392618
 C         -6.2546405785        0.9236090490        0.4486486782
 C         -4.7382517233       -0.9510109360        1.0250154821
 C         -5.3626818744       -1.3890834922        2.1844974215
 C         -4.6524202816       -1.9323309596        3.2391884452
 C         -3.2746563994       -2.0386010270        3.1486033139
 C         -2.6271647814       -1.6080509513        2.0114673274
 C         -3.3448338713       -1.0676796094        0.9376906514
 N         -2.6684608699       -0.6488433582       -0.1914071290
 C         -1.2456570290       -0.7009338153       -0.2027889181
 C         -0.5864182350       -1.8914725517       -0.5374636466
 C          0.7826311319       -1.9171547452       -0.5406102372
 C          1.5301143265       -0.7722281601       -0.2188316020
 C          0.8705862791        0.4345881725        0.1164162947
 C         -0.5306866562        0.4316305808        0.1165959499
 C          1.6485881821        1.6041309084        0.4421705706
 C          1.0668862741        2.8294189279        0.7742821493
 C          1.8428498067        3.9358111382        1.0832460358
 C          1.2158431460        5.1533396088        1.4113751413
 N          0.6996974587        6.1437483990        1.6816591784
 C          3.2500575693        3.8470044917        1.0690806968
 C          3.8383114034        2.6582985316        0.7454420580
 C          3.0665016234        1.5235378279        0.4276335116
 C          3.7296447912        0.3081398114        0.0935221833
 N          5.0502601118        0.2237317348        0.0783598781
 C          5.6900094557       -0.9016326229       -0.2304575795
 C          7.0804868099       -0.9995724388       -0.2490890876
 C          7.7026900580       -2.1896129795       -0.5753669789
 C          6.9510859731       -3.3131575515       -0.8921730278
 C          5.5694746569       -3.2538465022       -0.8852656372
 C          4.9077054649       -2.0727529726       -0.5617475503
 N          3.5763992664       -1.9722213215       -0.5446815875
 C          2.9589430655       -0.8504453143       -0.2349864780
 C         -3.3246661015       -0.1272772908       -1.2892986850
 C         -2.5895282057        0.2302171823       -2.4259698127
 C         -3.2143779770        0.7595847260       -3.5336011602
 C         -4.5871630677        0.9422360676       -3.5287743547
 C         -5.3170145165        0.5793077631       -2.4118332876
 C         -4.7156326391        0.0385092974       -1.2839371669
 H         -7.2475622611       -0.9621769636       -1.3300269582
 H         -7.2635841013       -1.6583573590        0.2849965374
 H         -6.1300139308       -2.2644935600       -0.9232502870
 H         -6.8854567523        0.6887138215        1.3010729212
 H         -6.8714547051        1.3838150597       -0.3180791037
 H         -5.5051579099        1.6463829694        0.7657324778
 H         -6.4345737792       -1.3027704538        2.2752215118
 H         -5.1701622235       -2.2641698014        4.1256801263
 H         -2.7029070172       -2.4540438850        3.9644150004
 H         -1.5531946649       -1.6857491251        1.9469293358
 H         -1.1650512726       -2.7679762198       -0.7859542814
 H          1.3237572972       -2.8161694688       -0.7924545790
 H         -1.0842076422        1.3226795874        0.3657687683
 H         -0.0054663610        2.9429922437        0.7967828997
 H          3.8399498419        4.7175173423        1.3127708148
 H          4.9124083734        2.5558510106        0.7237082646
 H          7.6532297162       -0.1195067267       -0.0010617798
 H          8.7806628710       -2.2423081368       -0.5826673938
 H          7.4441790273       -4.2390183995       -1.1455216216
 H          4.9724834701       -4.1189917369       -1.1289949359
 H         -1.5204494734        0.0860638011       -2.4335089496
 H         -2.6293311351        1.0292667354       -4.3995363923
 H         -5.0867563629        1.3611339081       -4.3883869040
 H         -6.3860594371        0.7262907523       -2.4245475115
  64
  -100.618477502900       1.255613301505328E-002 !
 C         -5.3019124060       -2.3320349675       -1.1404591097
 C         -5.4741053460       -0.9973381550       -0.3792302934
 C         -6.9703222668       -0.7251822504       -0.2162887260
 C         -4.7640413684       -1.1518001486        0.9498702676
 C         -5.4094482442       -1.5374653448        2.1136561036
 C         -4.7086639262       -1.7951780990        3.2800912326
 C         -3.3302559981       -1.6738832641        3.2951729798
 C         -2.6646662126       -1.2697063285        2.1571108093
 C         -3.3697301120       -0.9984771388        0.9819948199
 N         -2.6948242302       -0.5374966061       -0.1372600061
 C         -1.2757814751       -0.5919628436       -0.1390977441
 C         -0.6512834068       -1.8172303530       -0.4085050025
 C          0.7158357033       -1.8872194868       -0.4135407524
 C          1.4996580341       -0.7495679119       -0.1620898068
 C          0.8781281120        0.4909577840        0.1181939049
 C         -0.5224747169        0.5302135511        0.1328675332
 C          1.6939921704        1.6524829836        0.3751161859
 C          1.1525927532        2.9112246606        0.6447496634
 C          1.9647309684        4.0091007172        0.8843408957
 C          1.3776542263        5.2609699540        1.1497832801
 N          0.8913439150        6.2802497634        1.3615998312
 C          3.3683102972        3.8776858649        0.8607492154
 C          3.9174955163        2.6562438550        0.5954036246
 C          3.1087989573        1.5296007482        0.3478907687
 C          3.7329279189        0.2805337041        0.0671713185
 N          5.0500210364        0.1574350846        0.0339406933
 C          5.6537442236       -0.9991776325       -0.2271681433
 C          7.0401067327       -1.1362861345       -0.2708674963
 C          7.6234186821       -2.3591390773       -0.5438328217
 C          6.8358291908       -3.4776264799       -0.7802469548
 C          5.4567936871       -3.3797736359       -0.7482468823
 C          4.8334917466       -2.1646469058       -0.4792542235
 N          3.5065068763       -2.0242288022       -0.4477214970
 C          2.9248677249       -0.8707207119       -0.1900343754
 C         -3.3734574270        0.1650028252       -1.1204536749
 C         -2.6833059750        0.9693651983       -2.0305537259
 C         -3.3679016993        1.7285451708       -2.9564169518
 C         -4.7506343629        1.6986856162       -2.9859432380
 C         -5.4361068822        0.8588030023       -2.1238609474
 C         -4.7730949497        0.0665263230       -1.2010254851
 H         -5.7643836332       -3.1427778130       -0.5815711943
 H         -4.2481395043       -2.5628711933       -1.2766417995
 H         -5.7692871875       -2.2657082449       -2.1205375226
 H         -7.4457103221       -1.5326347639        0.3326750056
 H         -7.4557680781       -0.6786021944       -1.1865871889
 H         -7.1384346451        0.2106593516        0.3113810010
 H         -6.4805231234       -1.6535169909        2.1255058254
 H         -5.2396363649       -2.0978679069        4.1695459326
 H         -2.7724375173       -1.8816504178        4.1956636024
 H         -1.5923618628       -1.1514435211        2.1751546260
 H         -1.2559531603       -2.6892508916       -0.6057381408
 H          1.2270892532       -2.8153147355       -0.6173326045
 H         -1.0439472925        1.4455413032        0.3631902960
 H          0.0843343692        3.0588209878        0.6713438866
 H          3.9865301249        4.7420950559        1.0496870220
 H          4.9878131899        2.5208102642        0.5660886887
 H          7.6411866558       -0.2599124515       -0.0847169431
 H          8.6990716573       -2.4415078230       -0.5719944117
 H          7.2985027784       -4.4295973437       -0.9908283943
 H          4.8320010832       -4.2403826123       -0.9304881344
 H         -1.6056554520        0.9982265446       -2.0133120762
 H         -2.8187038060        2.3481330774       -3.6489763528
 H         -5.2956279515        2.3050408556       -3.6927781424
 H         -6.5105186947        0.8228722652       -2.1943289335
  64
  -100.618326644100       1.070350468725085E-002 !
 C         -5.3310455386       -2.2578259964       -1.2309102948
 C         -5.4802619234       -0.9850437219       -0.3661553015
 C         -6.9712121808       -0.7223104470       -0.1466657977
 C         -4.7416801711       -1.2420303196        0.9310914339
 C         -5.3621421437       -1.7357931833        2.0675595118
 C         -4.6403871627       -2.0753534297        3.1994809552
 C         -3.2651241012       -1.9229269210        3.2083989167
 C         -2.6243917575       -1.4151548474        2.0981595546
 C         -3.3497069854       -1.0706670973        0.9546074618
 N         -2.6949214237       -0.5192769943       -0.1362539270
 C         -1.2773861961       -0.5697120298       -0.1590365452
 C         -0.6553027813       -1.7958596801       -0.4342724475
 C          0.7111263699       -1.8706314863       -0.4383195084
 C          1.4985851200       -0.7348645194       -0.1885982341
 C          0.8806167508        0.5098157067        0.0793752603
 C         -0.5197836483        0.5511303939        0.1072950558
 C          1.7000053094        1.6732791799        0.3153444985
 C          1.1626204725        2.9443192247        0.5288210787
 C          1.9778933519        4.0445167464        0.7461337552
 C          1.3957896882        5.3108045992        0.9480751938
 N          0.9161753182        6.3419450191        1.1132309132
 C          3.3806205540        3.9017668849        0.7602456921
 C          3.9259960027        2.6684469863        0.5475865494
 C          3.1142775790        1.5404150599        0.3168065062
 C          3.7343021618        0.2811622653        0.0761030184
 N          5.0506119865        0.1442477778        0.0860970712
 C          5.6500995736       -1.0207921206       -0.1453082464
 C          7.0355158026       -1.1742791786       -0.1365843228
 C          7.6141855287       -2.4046957181       -0.3840485606
 C          6.8230010773       -3.5144840678       -0.6482216810
 C          5.4449263016       -3.4008638323       -0.6666442924
 C          4.8263707696       -2.1783798129       -0.4216124821
 N          3.5006529714       -2.0245333982       -0.4318728222
 C          2.9229716562       -0.8650743892       -0.1935190649
 C         -3.3950690276        0.2360263400       -1.0636407169
 C         -2.7265901980        1.0923523191       -1.9421837241
 C         -3.4314733159        1.9057614932       -2.8043584882
 C         -4.8144982792        1.8783901237       -2.8022469229
 C         -5.4792828116        0.9836323417       -1.9805146185
 C         -4.7959879342        0.1364541631       -1.1233924128
 H         -5.7819256081       -3.1082595771       -0.7243179521
 H         -4.2815346255       -2.4788529447       -1.4103211110
 H         -5.8217478926       -2.1167163525       -2.1913331531
 H         -7.4377288550       -1.5689741163        0.3480217793
 H         -7.4799035579       -0.5978794129       -1.0980330362
 H         -7.1216709806        0.1693888046        0.4574586968
 H         -6.4304385993       -1.8743576555        2.0835918477
 H         -5.1523734290       -2.4636161724        4.0662988265
 H         -2.6903663683       -2.1884753205        4.0824503938
 H         -1.5550386978       -1.2732119355        2.1148192329
 H         -1.2629349575       -2.6661767705       -0.6303070509
 H          1.2193612333       -2.8012534693       -0.6380176874
 H         -1.0359813107        1.4657786341        0.3513042423
 H          0.0955072342        3.1011894255        0.5201161395
 H          4.0013277769        4.7677703065        0.9334508421
 H          4.9955902786        2.5250219823        0.5458306907
 H          7.6396658516       -0.3044322442        0.0693719681
 H          8.6890999308       -2.4997704575       -0.3703790284
 H          7.2819350663       -4.4720703785       -0.8401516012
 H          4.8170324638       -4.2548312425       -0.8686047155
 H         -1.6488876540        1.1180737318       -1.9530709568
 H         -2.8975118364        2.5651967551       -3.4714213625
 H         -5.3756328025        2.5275692599       -3.4562630595
 H         -6.5547800104        0.9490699230       -2.0309125257
  64
  -100.618140922500       8.793753058114466E-003 !
 C         -6.9360975707       -0.1463587730       -0.0802581702
 C         -5.4237622018        0.0702319431       -0.0184530133
 C         -5.1583481385        1.5337631706        0.4031992578
 C         -4.7501761371       -0.8124086383        1.0129904552
 C         -5.4153135217       -1.3478174048        2.1036283960
 C         -4.7379280742       -2.0261094710        3.1037516732
 C         -3.3627352146       -2.1633018258        3.0322193505
 C         -2.6779554183       -1.6605170402        1.9457623863
 C         -3.3622861305       -1.0035673799        0.9207877344
 N         -2.6804023452       -0.5595283349       -0.1995528767
 C         -1.2591121276       -0.6271622784       -0.2141368120
 C         -0.6027549759       -1.8085635698       -0.5910600354
 C          0.7651189053       -1.8408504291       -0.5929522341
 C          1.5166846530       -0.7125559875       -0.2236800897
 C          0.8623978552        0.4815147168        0.1609817773
 C         -0.5400562169        0.4868438824        0.1525941521
 C          1.6468462876        1.6304984762        0.5401110383
 C          1.0725138633        2.8359221712        0.9491819656
 C          1.8547510082        3.9232016801        1.3065460675
 C          1.2340176471        5.1184533779        1.7181715610
 N          0.7195130851        6.0890829910        2.0549818526
 C          3.2613356498        3.8363610840        1.2612195742
 C          3.8428151705        2.6660746592        0.8661140996
 C          3.0645888630        1.5490432670        0.5040597439
 C          3.7219593820        0.3482545598        0.1111199928
 N          5.0418692390        0.2622316215        0.0731386120
 C          5.6753581621       -0.8533289882       -0.2806512891
 C          7.0650362703       -0.9530428066       -0.3232981149
 C          7.6799741730       -2.1344722284       -0.6921952219
 C          6.9215908372       -3.2479847625       -1.0275092674
 C          5.5403862976       -3.1864788746       -0.9987374195
 C          4.8859166450       -2.0134389162       -0.6342066858
 N          3.5556213304       -1.9102179866       -0.5966038467
 C          2.9445562787       -0.7967670865       -0.2474833500
 C         -3.3606614525       -0.3361252698       -1.3843790677
 C         -2.6750205210       -0.3351716266       -2.6010934329
 C         -3.3596215512       -0.1822595481       -3.7886170872
 C         -4.7357492524       -0.0377569632       -3.7771825457
 C         -5.4140907110       -0.0013513455       -2.5697476860
 C         -4.7494358626       -0.1282207013       -1.3612643477
 H         -7.3882368767        0.0620780813        0.8852221824
 H         -7.1699750475       -1.1682775454       -0.3700405659
 H         -7.3884392442        0.5376952314       -0.7925015946
 H         -5.5872430464        1.7235551501        1.3848354878
 H         -5.6046059964        2.2166673182       -0.3161749061
 H         -4.0903911716        1.7317093391        0.4497378709
 H         -6.4826638255       -1.2334470612        2.1961052105
 H         -5.2835224246       -2.4298951141        3.9425415285
 H         -2.8219848248       -2.6696261804        3.8172022374
 H         -1.6076099890       -1.7807453165        1.8823347732
 H         -1.1855372650       -2.6725442821       -0.8729960452
 H          1.3032477482       -2.7319009281       -0.8777481332
 H         -1.0877805114        1.3715606721        0.4348374956
 H          0.0008865026        2.9475445169        0.9990440748
 H          3.8562695899        4.6927683160        1.5401421852
 H          4.9162968633        2.5642036847        0.8223048517
 H          7.6433045423       -0.0813600177       -0.0590584273
 H          8.7575730414       -2.1882500802       -0.7180870544
 H          7.4087890923       -4.1676252468       -1.3127920321
 H          4.9379811462       -4.0433500241       -1.2579291711
 H         -1.6035621954       -0.4609011534       -2.6110814134
 H         -2.8175647353       -0.1850916937       -4.7219508342
 H         -5.2812331028        0.0655760979       -4.7024200411
 H         -6.4820056963        0.1402899365       -2.5876365342
