  58
        -98.20110787
 C          6.1448929421       -3.8167848684       -0.8915453574
 C          5.2703746033       -4.8937511905       -0.9472151020
 N          3.9620550866       -4.7804767659       -0.7779098246
 C          3.4655182624       -3.5813315996       -0.5467989004
 C          4.2470594107       -2.4261988618       -0.4756367677
 C          3.6369011948       -1.1209600757       -0.2179539159
 N          2.3125634945       -1.0571373480       -0.2013290569
 C          1.7397921687        0.1180061466        0.0493641429
 C          0.2757143650        0.1364319708        0.0665305875
 C         -0.4211873043       -0.8563233412       -0.6242215979
 C         -1.7989592876       -0.8691915413       -0.6413681697
 C         -2.5160878100        0.1072262013        0.0481880817
 N         -3.9231368417        0.1050395267        0.0328317181
 C         -4.6274148964        1.1939696979       -0.4903986393
 C         -3.9890187874        2.2798397883       -1.0769386939
 C         -4.7176961906        3.3430672118       -1.5880034197
 C         -6.0967290434        3.3343401167       -1.5339863146
 C         -6.7507898733        2.2414792673       -0.9850624742
 C         -6.0286964505        1.1777730743       -0.4761530772
 O         -6.7487794419        0.1188126497        0.0155891982
 C         -6.0443929822       -0.9512168298        0.5084041328
 C         -6.7835309197       -2.0104639808        1.0017897257
 C         -6.1469897838       -3.1139849278        1.5499139547
 C         -4.7685221869       -3.1385584169        1.6173799941
 C         -4.0226771441       -2.0793606225        1.1225148014
 C         -4.6436013094       -0.9822318014        0.5385732618
 C         -1.8255721139        1.0898982197        0.7553460206
 C         -0.4464254504        1.1070042721        0.7600942480
 C          2.5196577729        1.2583316730        0.2604006005
 C          3.9012805578        1.0963075092        0.2071582159
 C          4.8303161122        2.2119098489        0.4042104842
 C          6.1127040412        1.9978770644        0.9179871004
 N          6.9727921435        2.9812847960        1.1034322709
 C          6.5641103952        4.1981356358        0.7873376731
 N          5.3859399724        4.5214068605        0.2851096513
 C          4.5291083801        3.5355848688        0.0840292355
 N          4.4544008905       -0.0928716576       -0.0171788490
 C          5.6237662471       -2.5582519445       -0.6527902709
 H          7.2045227961       -3.9627373259       -1.0348502016
 H          5.6289951607       -5.8970520707       -1.1373498001
 H          2.3952434328       -3.5210251743       -0.4053726632
 H          0.1423928249       -1.6048004561       -1.1588648771
 H         -2.3316849040       -1.6280899318       -1.1949966504
 H         -2.9125578519        2.2931580292       -1.1436779834
 H         -4.1933045462        4.1751560013       -2.0319295455
 H         -6.6683625214        4.1602200313       -1.9265728269
 H         -7.8270279265        2.1902347979       -0.9488821245
 H         -7.8588522826       -1.9490921136        0.9523225234
 H         -6.7323754458       -3.9365694591        1.9293905271
 H         -4.2581515187       -3.9788168218        2.0618258053
 H         -2.9476140514       -2.1037756524        1.2030488994
 H         -2.3812654282        1.8330280750        1.3081892934
 H          0.0668726351        1.8608103070        1.3380357132
 H          2.0770317670        2.2216136360        0.4506842333
 H          6.4386418733        1.0023243491        1.1884849268
 H          7.2629948297        5.0076987898        0.9525166430
 H          3.5837239829        3.8175940237       -0.3627057231
 H          6.2524171952       -1.6816815613       -0.6052127589
