  54
  -90.1311371192000       0.327948294658149      !
 C         -5.8815672199        0.3384997406        1.4143948498
 C         -5.0348707047        0.0552787540        0.1597780956
 C         -5.9468144466       -0.2690350221       -1.0372199126
 C         -4.1471397546       -1.1398199696        0.4466047143
 C         -4.7327240081       -2.3659475753        0.7352076488
 C         -3.9833391944       -3.4795848086        1.0628904534
 C         -2.6069396638       -3.3671615204        1.1403588685
 C         -2.0001322016       -2.1604943559        0.8634048923
 C         -2.7526026124       -1.0452809037        0.4827748404
 N         -2.1122436320        0.1550970831        0.1886899827
 C         -0.7121374113        0.2431706358        0.3176032699
 C         -0.1643513163        1.0195126090        1.3265431963
 C          1.2142225642        1.1625794044        1.5235535982
 C          2.0652382093        0.5044606377        0.6653122804
 C          1.5128059764       -0.2806118306       -0.3747003415
 C          2.5060171188       -0.8788182117       -1.1853672397
 C          2.1213969955       -1.6581723243       -2.2491696329
 C          0.7452744001       -1.8203592365       -2.4884172229
 C         -0.2217138777       -1.2430288139       -1.6985885969
 C          0.1426406307       -0.4445321336       -0.5911954903
 C          3.7816759155       -0.4642346478       -0.6302715051
 N          4.9737652596       -0.7712277468       -1.0456318927
 C          5.9415274203       -0.2040336984       -0.2912631193
 N          7.2475569407       -0.2904707317       -0.4104956918
 O          7.7536647299        0.4527993899        0.5767596384
 N          6.8255739860        1.0283869745        1.3466009900
 C          5.6663787728        0.6534587991        0.8516953916
 N          4.4191678001        0.9619208187        1.2669020624
 C          3.5019546411        0.4047774476        0.5301401231
 C         -2.8284700201        1.2960305341       -0.1608757296
 C         -2.1420317933        2.4458451574       -0.5627657529
 C         -2.8207693205        3.5963025740       -0.9037762050
 C         -4.2033285926        3.6174557819       -0.8614688868
 C         -4.8850739323        2.4682669083       -0.5095417242
 C         -4.2259574254        1.2938049629       -0.1694924301
 H         -6.5375971516        1.1894399291        1.2535179404
 H         -5.2307724512        0.5612051189        2.2580335486
 H         -6.4929985440       -0.5218675893        1.6718382039
 H         -5.3433935186       -0.4547362210       -1.9237470291
 H         -6.5483908276       -1.1515661727       -0.8405150443
 H         -6.6200570475        0.5564960491       -1.2485326940
 H         -5.8077330011       -2.4573347963        0.7122579428
 H         -4.4709095946       -4.4185530895        1.2740125460
 H         -2.0018980735       -4.2148009383        1.4240748324
 H         -0.9282642892       -2.0813185198        0.9532558355
 H         -0.8424520394        1.5340051678        1.9925106220
 H          1.5919333437        1.7665304653        2.3331223588
 H          2.8510364468       -2.1301609732       -2.8881380501
 H          0.4396050236       -2.4237976358       -3.3302691799
 H         -1.2670468635       -1.3973150224       -1.9215773326
 H         -1.0643255982        2.4344796968       -0.6164884386
 H         -2.2672377696        4.4722810321       -1.2059724205
 H         -4.7467831913        4.5143273081       -1.1149291573
 H         -5.9639574165        2.4912970052       -0.5007881103
  54
  -90.1311094459000       0.318483992398081      !
 C         -6.1405748295        0.0994030832        0.8407492221
 C         -4.9672790428       -0.0554497983       -0.1435087369
 C         -5.4898657194       -0.4264791106       -1.5435670837
 C         -4.0675212038       -1.1693017942        0.3516180654
 C         -4.5968698594       -2.4355370947        0.5670248092
 C         -3.8327159586       -3.4759325351        1.0601057299
 C         -2.5062440618       -3.2481796670        1.3811142381
 C         -1.9545219034       -2.0030646598        1.1692895533
 C         -2.7118192093       -0.9642561760        0.6183657200
 N         -2.1106094431        0.2697581538        0.3884788161
 C         -0.7086146363        0.3505254660        0.4788029404
 C         -0.1035703023        1.1255284996        1.4552394208
 C          1.2859598024        1.2381014051        1.5930114269
 C          2.0873028917        0.5481381868        0.7122879169
 C          1.4751029531       -0.2413560718       -0.2908195052
 C          2.4198540036       -0.8806097275       -1.1269578722
 C          1.9747812150       -1.6720204022       -2.1578858623
 C          0.5871614251       -1.8038916004       -2.3391711444
 C         -0.3327100755       -1.1858974887       -1.5240447486
 C          0.0946359238       -0.3746610739       -0.4496033139
 C          3.7260691707       -0.4894479512       -0.6300161147
 N          4.8920614020       -0.8371647053       -1.0852464047
 C          5.9035782591       -0.2832056364       -0.3802754181
 N          7.2010316361       -0.4080640049       -0.5484052221
 O          7.7654299456        0.3386088959        0.4041163486
 N          6.8839716230        0.9539316768        1.1978855085
 C          5.6965105847        0.6024275398        0.7555605125
 N          4.4752710363        0.9529432920        1.2129004694
 C          3.5147800298        0.4083311853        0.5232311183
 C         -2.8547706389        1.3789085150       -0.0062489886
 C         -2.2238802777        2.6080039661       -0.2176646922
 C         -2.9413739560        3.7198787215       -0.6051480933
 C         -4.3061000016        3.6229077957       -0.8070018662
 C         -4.9258469256        2.3996168277       -0.6393216531
 C         -4.2282732062        1.2648844866       -0.2452275811
 H         -5.7633183348        0.3650630558        1.8263836762
 H         -6.7021603849       -0.8260845589        0.9264635818
 H         -6.8237710081        0.8776122290        0.5136467668
 H         -6.0204390645       -1.3743490465       -1.5188324718
 H         -6.1673190919        0.3356398228       -1.9183923918
 H         -4.6578465780       -0.5160872538       -2.2401165858
 H         -5.6363950914       -2.6202042006        0.3433540596
 H         -4.2739163967       -4.4491575529        1.2090857947
 H         -1.9000442464       -4.0360677918        1.8014795777
 H         -0.9246979777       -1.8285974498        1.4404530466
 H         -0.7399548230        1.6556759344        2.1494890194
 H          1.7098079376        1.8433589773        2.3785919287
 H          2.6667321776       -2.1757599955       -2.8142173826
 H          0.2325989539       -2.4165582131       -3.1547918910
 H         -1.3889496320       -1.3196419799       -1.7043170002
 H         -1.1565519929        2.6935869404       -0.0894658540
 H         -2.4294037264        4.6581558041       -0.7555975070
 H         -4.8800521698        4.4853384503       -1.1082200122
 H         -5.9854529557        2.3290810941       -0.8309356139
  54
  -90.1309083150000       0.257427089790169      !
 C         -6.0454453303        0.2137946601        1.1218331583
 C         -5.0123282238       -0.0040997099        0.0013996086
 C         -5.7210595942       -0.3606137338       -1.3182283754
 C         -4.1108961411       -1.1550556524        0.4001077303
 C         -4.6697450943       -2.4006181947        0.6569158858
 C         -3.9077577813       -3.4755018497        1.0733077254
 C         -2.5497939201       -3.3031175902        1.2735998680
 C         -1.9697447989       -2.0776489938        1.0241243042
 C         -2.7299836089       -1.0030508146        0.5519802654
 N         -2.1094756590        0.2138633844        0.2854704122
 C         -0.7083404439        0.2986298721        0.3949756632
 C         -0.1317950342        1.0741766022        1.3882190277
 C          1.2525947464        1.2020259168        1.5557390604
 C          2.0789107079        0.5281988466        0.6856125680
 C          1.4964398892       -0.2592629718       -0.3363551891
 C          2.4657522916       -0.8791231881       -1.1592721906
 C          2.0506882126       -1.6657114277       -2.2062269860
 C          0.6683866001       -1.8132120131       -2.4162786937
 C         -0.2753573014       -1.2148244489       -1.6139617186
 C          0.1207171801       -0.4081256710       -0.5239061722
 C          3.7570869120       -0.4767027792       -0.6325877682
 N          4.9365245001       -0.8056669487       -1.0666500763
 C          5.9263759099       -0.2457817164       -0.3358080412
 N          7.2284924023       -0.3533720689       -0.4777189895
 O          7.7636229904        0.3911661806        0.4931555123
 N          6.8584820100        0.9882871587        1.2738358696
 C          5.6849479212        0.6264464259        0.8036666020
 N          4.4503119657        0.9575504209        1.2387363413
 C          3.5113448710        0.4074487750        0.5243557432
 C         -2.8412116777        1.3399017182       -0.0818709450
 C         -2.1788759038        2.5330331465       -0.3852622556
 C         -2.8794700261        3.6649537426       -0.7441683562
 C         -4.2597743504        3.6243289935       -0.8228904344
 C         -4.9138570048        2.4343361865       -0.5682001410
 C         -4.2326614139        1.2794603459       -0.2053339005
 H         -6.7100289950        1.0387768572        0.8821040867
 H         -5.5350712207        0.4437355481        2.0553382243
 H         -6.6502349730       -0.6758897990        1.2718478965
 H         -4.9855221090       -0.4991787904       -2.1087132872
 H         -6.2919588328       -1.2789730443       -1.2154238222
 H         -6.4009513701        0.4312543644       -1.6198700267
 H         -5.7325588688       -2.5394959874        0.5316110472
 H         -4.3730948274       -4.4312467563        1.2575291371
 H         -1.9395607360       -4.1186679686        1.6307021508
 H         -0.9141553868       -1.9492656655        1.2061984941
 H         -0.7895331686        1.5969173137        2.0680315002
 H          1.6535005271        1.8065136709        2.3537114400
 H          2.7616406582       -2.1546296079       -2.8534643599
 H          0.3382878422       -2.4228130463       -3.2443733502
 H         -1.3264396698       -1.3594750370       -1.8151373606
 H         -1.1014669299        2.5728834097       -0.3497204727
 H         -2.3432922728        4.5747673541       -0.9672944401
 H         -4.8208609031        4.5042953395       -1.0964462523
 H         -5.9887259639        2.4072539327       -0.6609161434
  54
  -90.1289273614000       3.164251579417057E-002 !
 C         -5.9686386867        0.4366582054        1.2293843552
 C         -5.0244255666       -0.0099259989        0.0986016237
 C         -5.8387742196       -0.5187529506       -1.1045686043
 C         -4.1556203876       -1.1426635505        0.6122245656
 C         -4.7476185809       -2.3272169632        1.0286988266
 C         -4.0048425543       -3.3907855966        1.5071692697
 C         -2.6280974637       -3.2792627744        1.5768843730
 C         -2.0137435779       -2.1121157684        1.1740238704
 C         -2.7641782818       -1.0364434229        0.6925164755
 N         -2.1180303685        0.1272742963        0.3021284510
 C         -0.7091511776        0.2042010120        0.4323261477
 C         -0.1479724956        0.7085527996        1.5895871716
 C          1.2387186256        0.8022686468        1.7885827451
 C          2.0688462028        0.3709202575        0.7816995639
 C          1.4970705018       -0.1402907518       -0.4070149370
 C          2.4708623555       -0.5408829098       -1.3514465547
 C          2.0585316537       -1.0557252834       -2.5567312926
 C          0.6764997220       -1.1634009367       -2.7960854452
 C         -0.2716675024       -0.7780269634       -1.8770891572
 C          0.1223279553       -0.2440954560       -0.6302683540
 C          3.7587501537       -0.2791315235       -0.7352676887
 N          4.9417114020       -0.4958301014       -1.2269468905
 C          5.9261397708       -0.1386649414       -0.3729227808
 N          7.2297384994       -0.2145273630       -0.5250702306
 O          7.7564320751        0.2613377697        0.6050196990
 N          6.8468620537        0.6503960222        1.5008467230
 C          5.6769769700        0.4243311856        0.9451169606
 N          4.4380400714        0.6425977081        1.4379934294
 C          3.5060015413        0.2925792091        0.6026617958
 C         -2.8056885544        1.2091466663       -0.2271432324
 C         -2.0949394252        2.3335089206       -0.6545100097
 C         -2.7505828229        3.4268238586       -1.1804864970
 C         -4.1293986591        3.4151672182       -1.2878758413
 C         -4.8326444847        2.3002308456       -0.8702204786
 C         -4.1986017970        1.1843268880       -0.3413433626
 H         -6.6235259324        1.2357403593        0.8934702475
 H         -5.3878936355        0.8009337629        2.0747735437
 H         -6.5850967687       -0.3911831587        1.5685286758
 H         -5.1669921174       -0.8349141469       -1.9006635092
 H         -6.4592040462       -1.3649312620       -0.8238018553
 H         -6.4866394675        0.2616651703       -1.4929656333
 H         -5.8212771487       -2.4283290413        0.9824021026
 H         -4.4982605680       -4.2972163854        1.8221250135
 H         -2.0292309882       -4.0981190702        1.9458307179
 H         -0.9389259537       -2.0289241729        1.2337935927
 H         -0.8127567087        1.0417663018        2.3735489979
 H          1.6340180348        1.1999508757        2.7098048156
 H          2.7717954957       -1.3711249555       -3.3020581531
 H          0.3519995193       -1.5679853970       -3.7433892008
 H         -1.3232124039       -0.8798504347       -2.1014609940
 H         -1.0183818213        2.3471532142       -0.5717017622
 H         -2.1822400190        4.2857921540       -1.5038186694
 H         -4.6549092800        4.2658977086       -1.6932603244
 H         -5.9082842795        2.3062718292       -0.9596437291
  54
  -90.1283338281000       1.688503584142924E-002 !
 C         -4.9124862759        0.9553206730        1.9044970464
 C         -4.9513229380        0.2105047411        0.5514674906
 C         -6.4146107543       -0.0053983744        0.1615887728
 C         -4.2043429537       -1.0947914724        0.7385937370
 C         -4.8344952269       -2.2892195348        1.0516703890
 C         -4.1151393778       -3.4377972852        1.3344338059
 C         -2.7334036353       -3.4061707425        1.3023779023
 C         -2.0821617008       -2.2367543368        0.9665880325
 C         -2.8052671299       -1.0774246944        0.6859862758
 N         -2.1356433766        0.0797703332        0.2963079574
 C         -0.7312159194        0.1156413719        0.4281592547
 C         -0.1854759198        0.3484054841        1.6782049189
 C          1.1946980087        0.4065434642        1.9155280051
 C          2.0446302166        0.2113679491        0.8520933091
 C          1.4930461830       -0.0538789897       -0.4240361669
 C          2.4862102714       -0.2697137656       -1.4082732945
 C          2.1016473549       -0.5693466688       -2.6925303879
 C          0.7255491439       -0.6559541444       -2.9689662714
 C         -0.2414959282       -0.4398255510       -2.0150463619
 C          0.1230395783       -0.1156581270       -0.6883902396
 C          3.7617898301       -0.1158587977       -0.7330602993
 N          4.9537073632       -0.2173531527       -1.2400821142
 C          5.9217857699       -0.0139277782       -0.3190786180
 N          7.2278841206       -0.0350708843       -0.4653873989
 O          7.7339113320        0.2252883574        0.7424844881
 N          6.8066074940        0.4184983971        1.6839686482
 C          5.6472362656        0.2811854887        1.0789511962
 N          4.3998035648        0.3804376281        1.5870216114
 C          3.4827258778        0.1843011147        0.6852600442
 C         -2.8019062167        1.0539124753       -0.4427804780
 C         -2.0924186022        2.0197747495       -1.1560135141
 C         -2.7552394195        2.9436653714       -1.9386866084
 C         -4.1345405044        2.9135592280       -2.0203040503
 C         -4.8435714375        1.9983479151       -1.2609662264
 C         -4.2043317563        1.0780541881       -0.4449595286
 H         -5.4107376794        1.9183815981        1.8163671582
 H         -3.8854106043        1.1271912659        2.2180284880
 H         -5.4135031894        0.3661470965        2.6695402955
 H         -6.4898382304       -0.5244199393       -0.7912501969
 H         -6.9288247625       -0.5848625450        0.9228735988
 H         -6.9331633054        0.9462299183        0.0903201649
 H         -5.9101150858       -2.3388383581        1.0908773592
 H         -4.6351483748       -4.3496026976        1.5845642311
 H         -2.1588700857       -4.2921912952        1.5260142862
 H         -1.0037327986       -2.2220935291        0.9147539550
 H         -0.8634408116        0.4961903690        2.5066175181
 H          1.5725421145        0.6055421820        2.9057332681
 H          2.8311913202       -0.7411896474       -3.4681850000
 H          0.4197160350       -0.9046070598       -3.9743952232
 H         -1.2865509554       -0.5193330235       -2.2754565244
 H         -1.0161697516        2.0567397130       -1.0949727464
 H         -2.1889246700        3.6829297388       -2.4845448327
 H         -4.6617374147        3.6180333407       -2.6448049988
 H         -5.9196978540        2.0252451722       -1.3047018396
  54
  -90.1281430421000       1.379821195785105E-002 !
 C         -5.1549502812        0.5744789782        1.9605275964
 C         -4.9871310919        0.1657775635        0.4814235430
 C         -6.3742086805       -0.0188402012       -0.1451317414
 C         -4.1922574722       -1.1291909452        0.4693900834
 C         -4.8122296668       -2.3581734852        0.6452810804
 C         -4.0913304112       -3.5295889060        0.7953888691
 C         -2.7103345085       -3.4800858568        0.8133835960
 C         -2.0664275405       -2.2733446508        0.6340052703
 C         -2.7918145039       -1.0994284952        0.4236420017
 N         -2.1299964312        0.1038601649        0.2027611644
 C         -0.7282418929        0.1881721073        0.3325687822
 C         -0.1984145724        0.9312382190        1.3737497861
 C          1.1777257280        1.0818509896        1.5882108211
 C          2.0419115844        0.4690885936        0.7107887293
 C          1.5069610031       -0.2734798971       -0.3687849215
 C          2.5129410105       -0.8145488001       -1.2035831009
 C          2.1451471985       -1.5383138279       -2.3117171450
 C          0.7727163352       -1.7021769222       -2.5707374063
 C         -0.2067193656       -1.1813839642       -1.7575186442
 C          0.1404900349       -0.4435822511       -0.6030117260
 C          3.7795178978       -0.4115907864       -0.6200777768
 N          4.9780659673       -0.6809106616       -1.0430394115
 C          5.9336504537       -0.1393780553       -0.2552771963
 N          7.2415105052       -0.2022529667       -0.3701580756
 O          7.7315068775        0.4968243825        0.6564007669
 N          6.7914761364        1.0206786997        1.4479142535
 C          5.6403742929        0.6560157188        0.9272415271
 N          4.3864430661        0.9268485554        1.3490871979
 C          3.4814845612        0.3947564660        0.5801104644
 C         -2.8160554064        1.2190695240       -0.2663580408
 C         -2.1004436236        2.2660335118       -0.8508485891
 C         -2.7513784941        3.3773996359       -1.3434298030
 C         -4.1302965786        3.4493642870       -1.2730748632
 C         -4.8417948726        2.4030061411       -0.7133772594
 C         -4.2128641943        1.2740269055       -0.2075284483
 H         -5.7104631303        1.5068980143        2.0319069140
 H         -4.1823337291        0.7154620566        2.4272906707
 H         -5.6891936859       -0.1991079974        2.5075776978
 H         -6.2849468978       -0.3203350129       -1.1864369616
 H         -6.9449193907       -0.7700644145        0.3917286233
 H         -6.9481698732        0.9008734890       -0.0938191832
 H         -5.8873977274       -2.4182693061        0.6845891854
 H         -4.6086213312       -4.4674075168        0.9262794732
 H         -2.1297526048       -4.3764537440        0.9700632617
 H         -0.9889928536       -2.2432552274        0.6674696762
 H         -0.8877977918        1.4133461874        2.0520367214
 H          1.5425126560        1.6587861715        2.4229719322
 H          2.8848267732       -1.9646191293       -2.9709332292
 H          0.4801160885       -2.2595441634       -3.4481770776
 H         -1.2485700496       -1.3323012121       -1.9985504924
 H         -1.0250475823        2.2032325836       -0.9227208352
 H         -2.1807083277        4.1794553899       -1.7861081877
 H         -4.6533501316        4.3141455065       -1.6510561966
 H         -5.9146884796        2.4897962323       -0.6650231676
  54
  -90.1280015107000       1.187898910455035E-002 !
 C         -6.3143062843       -0.1939597891       -0.4085847314
 C         -4.7931261703       -0.3544994666       -0.4377971215
 C         -4.4212868666       -1.2128317988       -1.6676409112
 C         -4.2560403073       -1.0854108989        0.7792863196
 C         -5.0338697801       -1.9657383661        1.5154112308
 C         -4.4853491073       -2.7875373493        2.4844547942
 C         -3.1192623582       -2.7729024290        2.6911288240
 C         -2.3273502145       -1.8810443377        1.9958584705
 C         -2.8880343965       -0.9899802808        1.0813142891
 N         -2.1113529520       -0.0319120471        0.4270797634
 C         -0.7145755730        0.0097924801        0.5563623347
 C         -0.0992537668        0.1290152100        1.7944267432
 C          1.2899998739        0.1622733710        1.9627652304
 C          2.0865505594        0.0764864193        0.8437906464
 C          1.4670054020       -0.0185007556       -0.4256212527
 C          2.4076140391       -0.0763436173       -1.4804352945
 C          1.9582385919       -0.1656508624       -2.7755796020
 C          0.5702154414       -0.1976300763       -2.9920423542
 C         -0.3451071065       -0.1388499174       -1.9663854956
 C          0.0852191420       -0.0456668830       -0.6245920742
 C          3.7166252982       -0.0157642575       -0.8567412139
 N          4.8801828581       -0.0378576709       -1.4341940885
 C          5.8952500094        0.0367265410       -0.5445644508
 N          7.1916627538        0.0415582231       -0.7602439327
 O          7.7612851872        0.1296622029        0.4444594413
 N          6.8840507005        0.1836115885        1.4513338463
 C          5.6943248266        0.1292853726        0.8936875040
 N          4.4758960397        0.1507507118        1.4749033099
 C          3.5116437811        0.0791133818        0.6025671582
 C         -2.7363896233        1.0539731255       -0.1894031235
 C         -2.0337217225        2.2478606187       -0.3592870363
 C         -2.6411935550        3.3458657531       -0.9319967015
 C         -3.9688247955        3.2750602614       -1.3125975517
 C         -4.6745609547        2.1000584069       -1.1230540297
 C         -4.0795701603        0.9745340595       -0.5722999902
 H         -6.6628196041        0.2799810291       -1.3216522446
 H         -6.6243704185        0.4056658097        0.4441323220
 H         -6.7992426569       -1.1643482630       -0.3569472541
 H         -3.3499861022       -1.3978123657       -1.6999689334
 H         -4.9291679334       -2.1736064323       -1.6190210876
 H         -4.7161340324       -0.7036637366       -2.5830519935
 H         -6.0922675079       -2.0360479998        1.3283382955
 H         -5.1180338197       -3.4592960097        3.0433830319
 H         -2.6633830412       -3.4503984405        3.3969167487
 H         -1.2616848763       -1.8952753105        2.1570236496
 H         -0.7263249593        0.2327588282        2.6680366193
 H          1.7179880044        0.2694071129        2.9469120754
 H          2.6470423158       -0.2083202285       -3.6044315054
 H          0.2109679198       -0.2701833374       -4.0079483242
 H         -1.4014069933       -0.1557782721       -2.1884593895
 H         -1.0078257680        2.3178273160       -0.0311939435
 H         -2.0799866986        4.2580564877       -1.0652789098
 H         -4.4568046135        4.1301687203       -1.7540671288
 H         -5.7085110159        2.0718245305       -1.4242567952
  54
  -90.1277909963000       9.506787013206166E-003 !
 C         -6.2630953806       -0.2169085157       -0.5786412904
 C         -4.7374917285       -0.1097916524       -0.6150004821
 C         -4.2719218011       -0.3537734044       -2.0682211957
 C         -4.0700808148       -1.1473579693        0.2632877667
 C         -4.6782812466       -2.3401746268        0.6257274689
 C         -4.0049439060       -3.3049722098        1.3542327004
 C         -2.6992497051       -3.0789589854        1.7509384708
 C         -2.0806522557       -1.8902830692        1.4239219914
 C         -2.7496789083       -0.9264404125        0.6682041216
 N         -2.1141180931        0.2827270535        0.3829042914
 C         -0.7183636844        0.3340825550        0.5053471557
 C         -0.0944881227        1.1307902038        1.4554236654
 C          1.2958666836        1.2492069430        1.5674775519
 C          2.0856641690        0.5364708842        0.6944998606
 C          1.4585230190       -0.3141256350       -0.2479318523
 C          2.3930721123       -0.9965153762       -1.0612711480
 C          1.9381904941       -1.8633513900       -2.0251587619
 C          0.5497980092       -2.0303104851       -2.1590160865
 C         -0.3599360393       -1.3630010865       -1.3712279013
 C          0.0759892316       -0.4634208225       -0.3737368504
 C          3.7047762728       -0.5537006236       -0.6268194899
 N          4.8635895213       -0.9033660842       -1.0986115007
 C          5.8832935211       -0.2819741405       -0.4650769641
 N          7.1769176347       -0.3831907141       -0.6731672666
 O          7.7532153676        0.4372765397        0.2094325038
 N          6.8829350514        1.0783400879        0.9952508837
 C          5.6910297328        0.6682871233        0.6201146503
 N          4.4774982032        1.0174531334        1.0977683281
 C          3.5084495684        0.4094870655        0.4751277085
 C         -2.8853049172        1.4214357511        0.1386346871
 C         -2.3400604686        2.7028451852        0.2079867324
 C         -3.1328630226        3.8199975312        0.0356527166
 C         -4.4853498180        3.6747243209       -0.2063743803
 C         -5.0145787804        2.4050852427       -0.3584817149
 C         -4.2335446788        1.2676498335       -0.2237670413
 H         -6.7125283594        0.5092915199       -1.2495653339
 H         -6.6397079121       -0.0531706244        0.4283448429
 H         -6.5813959580       -1.1970224563       -0.9221482143
 H         -3.1961047849       -0.2217462813       -2.1573421611
 H         -4.5281206708       -1.3646678766       -2.3794356474
 H         -4.7551991387        0.3542223437       -2.7379234992
 H         -5.6955060211       -2.5391005889        0.3319997833
 H         -4.5014535757       -4.2278021264        1.6113340341
 H         -2.1655814258       -3.8190390187        2.3273958420
 H         -1.0730271625       -1.6997269968        1.7614526889
 H         -0.7141263939        1.6656500625        2.1603839553
 H          1.7301657631        1.8782091781        2.3284009929
 H          2.6230858041       -2.4017232201       -2.6609877305
 H          0.1845267010       -2.7113739357       -2.9134034551
 H         -1.4159527157       -1.5369078743       -1.5104902997
 H         -1.2841403678        2.8364265001        0.3761756316
 H         -2.6879670131        4.8015396803        0.0961021383
 H         -5.1199582602        4.5404504739       -0.3150870730
 H         -6.0593836795        2.3156269437       -0.6047157897
  54
  -90.1274826337000       6.859936967845015E-003 !
 C         -5.7199173861        0.0244644338       -1.6649998727
 C         -4.3040703617        0.1486705208       -1.1039856994
 C         -3.3288764557        0.2698585731       -2.2916956458
 C         -3.9159196227       -1.0454286526       -0.2482334507
 C         -4.6292125843       -2.2308001826       -0.1587192466
 C         -4.2054929680       -3.2490963967        0.6795056841
 C         -3.0721667291       -3.0912430748        1.4595211459
 C         -2.3489562913       -1.9162800885        1.3897751902
 C         -2.7560605759       -0.9131028976        0.5192172131
 N         -2.0792351268        0.3243917457        0.4770424969
 C         -0.7336809160        0.4645333538        0.2837644315
 C         -0.1119801726        1.7065315867        0.4707320597
 C          1.2629029305        1.9005556613        0.4453878555
 C          2.0819379193        0.8175679805        0.2017706139
 C          1.4670302787       -0.4114570350       -0.1421606324
 C          2.4251938280       -1.3844378529       -0.5171694671
 C          2.0078611345       -2.6027855964       -0.9940677244
 C          0.6282641902       -2.8048556782       -1.1262883395
 C         -0.3043530978       -1.8647501756       -0.7448714428
 C          0.0843826679       -0.6310021481       -0.1759905802
 C          3.7250924964       -0.7679057887       -0.3432306820
 N          4.8942622313       -1.2980779445       -0.5441896052
 C          5.8984643812       -0.4272765107       -0.2950515662
 N          7.1960712322       -0.6107240215       -0.3849622658
 O          7.7547984443        0.5535071301       -0.0365307700
 N          6.8635602052        1.5023629565        0.2810684188
 C          5.6801617243        0.9459249916        0.1379877001
 N          4.4581455710        1.4802032927        0.3369152765
 C          3.5006256380        0.6229590006        0.1017272290
 C         -2.9993811006        1.3922338470        0.6186293489
 C         -2.8594147126        2.3691092752        1.5954017035
 C         -3.8027065221        3.3752686133        1.7033289967
 C         -4.8968841574        3.3870985722        0.8579715170
 C         -5.0764866401        2.3671539600       -0.0617845832
 C         -4.1435658279        1.3501997734       -0.1869271394
 H         -5.9588459577        0.8906411248       -2.2768868841
 H         -6.4523951860       -0.0584072763       -0.8652963427
 H         -5.7917288720       -0.8523575635       -2.3038579331
 H         -2.2983107872        0.3702913844       -1.9651298881
 H         -3.4043683276       -0.6134556602       -2.9225884328
 H         -3.5836978494        1.1440125646       -2.8869805733
 H         -5.5251312928       -2.3733552808       -0.7405912652
 H         -4.7725061761       -4.1658931007        0.7319294500
 H         -2.7577007528       -3.8761741617        2.1296483140
 H         -1.4661136281       -1.7710839121        1.9940051991
 H         -0.7313673653        2.5700472243        0.6463979428
 H          1.6755872322        2.8808826923        0.6232665311
 H          2.7148131094       -3.3613629047       -1.2899562380
 H          0.2791413569       -3.7318155285       -1.5568891890
 H         -1.3434099306       -2.0814810059       -0.9269001043
 H         -2.0359113534        2.3243422743        2.2912546079
 H         -3.6866008625        4.1381402466        2.4576568987
 H         -5.6312377008        4.1742418250        0.9332697964
 H         -5.9607634040        2.3725915503       -0.6777143936
  54
  -90.1272856412000       5.569146474548270E-003 !
 C         -5.8166788678       -0.0410526225       -1.5239981405
 C         -4.3730028338        0.1169764436       -1.0482414867
 C         -3.4678929204        0.2336283403       -2.2904671528
 C         -3.9159581479       -1.0578808279       -0.2000493848
 C         -4.5928821093       -2.2612343315       -0.0712137412
 C         -4.1024122489       -3.2649618653        0.7477355382
 C         -2.9384761820       -3.0732258355        1.4731935203
 C         -2.2516133889       -1.8798103785        1.3651191299
 C         -2.7240641133       -0.8925715911        0.5089719800
 N         -2.0743113902        0.3567856379        0.4221447949
 C         -0.7325931038        0.5047399875        0.2084614047
 C         -0.1060290583        1.7461736366        0.3807357047
 C          1.2708715838        1.9295172659        0.3663268805
 C          2.0846446200        0.8372156107        0.1464194951
 C          1.4635824534       -0.3864153593       -0.2053170179
 C          2.4168235203       -1.3698043797       -0.5645792494
 C          1.9925515084       -2.5821991563       -1.0505193526
 C          0.6128186958       -2.7676456566       -1.2068870725
 C         -0.3152099727       -1.8198761111       -0.8336021975
 C          0.0802356851       -0.5936024271       -0.2537401614
 C          3.7200101674       -0.7697407056       -0.3592622531
 N          4.8868201123       -1.3167390654       -0.5257507094
 C          5.8957678940       -0.4618914192       -0.2427860429
 N          7.1925480328       -0.6661542791       -0.2881057633
 O          7.7576281762        0.4880106064        0.0827346815
 N          6.8711896422        1.4504033697        0.3716856969
 C          5.6847254637        0.9135369731        0.1863443416
 N          4.4652840837        1.4663774991        0.3465357833
 C          3.5026952911        0.6240716648        0.0808123773
 C         -3.0022619819        1.4135404677        0.5849807727
 C         -2.8323965022        2.4145118423        1.5327668997
 C         -3.7788664582        3.4158478564        1.6559203700
 C         -4.9074828027        3.3985552288        0.8574231428
 C         -5.1178041512        2.3521469157       -0.0252618164
 C         -4.1819823517        1.3396580486       -0.1656540599
 H         -6.1070813072        0.8092765039       -2.1356099358
 H         -6.4991521078       -0.1219822537       -0.6809472442
 H         -5.9103602499       -0.9300379066       -2.1427226192
 H         -2.4234214804        0.3602270298       -2.0209734781
 H         -3.5598833893       -0.6630053775       -2.9000685932
 H         -3.7722118559        1.0912702924       -2.8865100105
 H         -5.5118839248       -2.4302381095       -0.6082337478
 H         -4.6405509107       -4.1969613349        0.8283047168
 H         -2.5713815941       -3.8461926212        2.1303820323
 H         -1.3471052047       -1.7080197684        1.9288660772
 H         -0.7208747552        2.6154434155        0.5429594235
 H          1.6888836139        2.9082230626        0.5404440892
 H          2.6950159808       -3.3489472348       -1.3359069722
 H          0.2605010049       -3.6892087333       -1.6460321095
 H         -1.3548659833       -2.0233678082       -1.0292349850
 H         -1.9818109762        2.3934754390        2.1959927886
 H         -3.6372421143        4.1981543725        2.3856653053
 H         -5.6444840132        4.1821762415        0.9431607447
 H         -6.0295620075        2.3329561340       -0.5991991797
