  64
       -102.73942483
 O          5.7798857805        2.1642244917        1.1768622739
 S          5.7402965956        0.7208263799        1.1706219879
 O          6.4020342522        0.0240651351        2.2486629508
 C          6.4056990627        0.1290044602       -0.3939088120
 C          6.3490343756        0.9465754231       -1.5066226727
 C          6.7962813231        0.4635708479       -2.7248019160
 C          7.2851016015       -0.8306012450       -2.8175593703
 C          7.3359408392       -1.6430484319       -1.6950518167
 C          6.8904810210       -1.1628102966       -0.4753414104
 C          4.0520688155        0.1733570274        1.0567910624
 C          3.7134225429       -1.1194797640        1.4575185301
 C          2.4368775509       -1.5793320917        1.2911282216
 C          1.4165049378       -0.7632868388        0.7113454652
 C          0.0930814940       -1.2290354582        0.5373038081
 C         -0.2261125942       -2.6370522408        0.5833072334
 C         -1.4821280647       -3.1146282124        0.4067432437
 C         -2.5525044213       -2.2079469104        0.1818517118
 C         -2.2540568179       -0.7985931735        0.1400205596
 C         -1.0003153695       -0.3240432449        0.2985289446
 C         -3.5254959892       -0.0207674644       -0.1042059653
 C         -3.4600903229        0.8500439453       -1.3359136908
 C         -3.1964065937        0.4741316616       -2.6349736873
 C         -3.1798782542        1.4564861125       -3.6156420787
 C         -3.4236449192        2.7845526472       -3.2956093730
 C         -3.6889828107        3.1661388984       -1.9904675804
 C         -3.7062291100        2.1916227487       -1.0056520976
 C         -3.9436083080        2.2779076234        0.4258063665
 C         -4.2322278861        3.3605980299        1.2408077349
 C         -4.4121731277        3.1398109471        2.5965752169
 C         -4.3058399163        1.8641925043        3.1321365652
 C         -4.0174463764        0.7742241493        2.3221309272
 C         -3.8383946090        0.9899287908        0.9732649919
 C         -4.5518524252       -1.1215961442       -0.2017442108
 C         -5.8981892515       -1.0179237987       -0.4222159625
 C         -6.6620299763       -2.1866652102       -0.4707494712
 C         -6.0655474288       -3.4401209115       -0.2976854493
 C         -4.7162148992       -3.5644478766       -0.0753722664
 C         -3.9263291762       -2.3959630119       -0.0232779743
 C          1.8062497550        0.5543430733        0.3172149321
 C          3.0898537493        0.9979435200        0.4735471643
 H          5.9736437220        1.9519220425       -1.3962781742
 H          6.7646278608        1.0952127709       -3.5996634887
 H          7.6325344934       -1.2066010765       -3.7683436325
 H          7.7227160128       -2.6481657963       -1.7702465839
 H          6.9293808125       -1.7630595956        0.4197581432
 H          4.4735576836       -1.7266138907        1.9237225781
 H          2.1893060029       -2.5643117426        1.6523512812
 H          0.5803912094       -3.3390534369        0.7211114088
 H         -1.6790127928       -4.1762012470        0.4262670458
 H         -0.8269818900        0.7400527787        0.2887715012
 H         -3.0057644636       -0.5600413794       -2.8829090181
 H         -2.9740863216        1.1837964229       -4.6400388791
 H         -3.4053307032        3.5307518006       -4.0762635755
 H         -3.8772909824        4.2009687583       -1.7466543969
 H         -4.3159795606        4.3551572467        0.8288911792
 H         -4.6383496044        3.9717412980        3.2471589611
 H         -4.4494541402        1.7173691192        4.1922383905
 H         -3.9349795491       -0.2191671003        2.7387665346
 H         -6.3641257493       -0.0523464828       -0.5554417427
 H         -7.7252267927       -2.1221644568       -0.6429033557
 H         -6.6850887444       -4.3239859955       -0.3413340217
 H         -4.2583526680       -4.5325981374        0.0579183489
 H          1.0859060825        1.2022055957       -0.1547679479
 H          3.3833448709        1.9907220654        0.1703049885
