64
 energy: -102.883215321826 gnorm: 0.000030929227 xtb: 6.7.1 (edcfbbe)
O            5.70800979203286        2.45526205652331       -0.37434298095226
S            5.65101619386671        1.29855083418567        0.49670238551854
O            6.07623764709573        1.49269086407961        1.86840947814315
C            6.62773059110441       -0.02349409073072       -0.22809227626713
C            6.52004574859846       -0.25395579282241       -1.58655393368504
C            7.23696900652068       -1.29555034758980       -2.15198849742530
C            8.04487868073918       -2.09161385801624       -1.35365634716841
C            8.14345924602089       -1.85051878466000        0.00793902791007
C            7.42815768975594       -0.80912180745359        0.57768904251463
C            3.98015791264218        0.64970859317318        0.48858640931194
C            3.64662185995310       -0.33823562415049        1.39655957830033
C            2.37651123756465       -0.88232568661976        1.36930738449047
C            1.43550161255048       -0.44338975608938        0.43555147389620
C            0.08673639353518       -1.02726806950912        0.40053077134114
C           -0.08938722771000       -2.40282587022338        0.56239949461306
C           -1.34592715385912       -2.98013567434143        0.51872620168792
C           -2.44898878948475       -2.16558959725361        0.31696876299959
C           -2.27810191650527       -0.78136874869531        0.16144981925752
C           -1.02804999331756       -0.20923045412641        0.19578030375253
C           -3.61071326735157       -0.10134053465051       -0.04344742739050
C           -3.68833677086571        0.68671982995513       -1.33019903944118
C           -3.49199202167949        0.24127298554521       -2.61935738626727
C           -3.61033068541652        1.15376848092683       -3.65990185614332
C           -3.91968298723399        2.48225379889776       -3.40795763264053
C           -4.11874366302201        2.93336237952958       -2.11247680329513
C           -4.00128855908197        2.02892561460846       -1.06935123749900
C           -4.14415659038472        2.19827496517277        0.36883887772550
C           -4.44830829963384        3.31425649800001        1.13157789110853
C           -4.51804483683378        3.17790753585130        2.50916425116173
C           -4.28669762934404        1.95229085620263        3.11604958633251
C           -3.98213851949732        0.82913067331448        2.35780727006459
C           -3.91378771013314        0.96078023259680        0.98781522818511
C           -4.56491122632017       -1.27161171367087        0.00639224025235
C           -5.93635476138791       -1.26496831881892       -0.12734964431913
C           -6.61540075629360       -2.47385258224492       -0.04562781663018
C           -5.93016557497079       -3.66130460084140        0.16646623498873
C           -4.55095024390494       -3.67237232461361        0.30140568327455
C           -3.86685171138844       -2.46979226315976        0.22075431850060
C            1.79543091882901        0.55815928037711       -0.46748327254759
C            3.06705997720293        1.10078981480081       -0.44503835372516
H            5.89144685227274        0.39070157962444       -2.18058643483950
H            7.16605211494854       -1.48444945912773       -3.21221682811375
H            8.60286666205538       -2.90289243275326       -1.79645900500362
H            8.77603325760252       -2.46946301784278        0.62578399503446
H            7.48533913158652       -0.58407815018313        1.63149760756577
H            4.38012586165918       -0.65476826052910        2.12139959852033
H            2.10350662227296       -1.63995875359738        2.08772969278287
H            0.77866031697631       -3.03049710801533        0.69897320914299
H           -1.46126533808781       -4.04717730616867        0.63658423818480
H           -0.90966783314200        0.85914094529689        0.09071439838006
H           -3.25153950847605       -0.79354829952989       -2.81676347174426
H           -3.45982179761423        0.82447277590028       -4.67778087161131
H           -4.00685280160740        3.17434854331572       -4.23327146705197
H           -4.35946650645266        3.96881688676906       -1.92177171768055
H           -4.62891910760104        4.27100753305259        0.66413949604221
H           -4.75520673601493        4.03762117453940        3.11937837573608
H           -4.34545639577677        1.86981867118697        4.19164330951021
H           -3.80408892904587       -0.12541226156401        2.83191711718387
H           -6.47156038051294       -0.34086055564412       -0.29209356635529
H           -7.69077964687958       -2.48882234240942       -0.14818252971125
H           -6.48034577911275       -4.58935753990353        0.22608125784334
H           -4.02192165318812       -4.59938641630097        0.46564573841551
H            1.08089442347470        0.89800053624009       -1.20181989685951
H            3.36617173357957        1.87724885154683       -1.13216545374388
