  64
       -102.83659730
 O          5.6962003453        2.4868396973       -0.3419903649
 S          5.6465619953        1.3358611747        0.5263034424
 O          6.0792602207        1.5070998750        1.8917372937
 C          6.5915950004       -0.0039142760       -0.2165406510
 C          6.4203180730       -0.2666652524       -1.5623740144
 C          7.1107717644       -1.3199880752       -2.1378470510
 C          7.9567709640       -2.0974339096       -1.3613878116
 C          8.1189401825       -1.8257142048       -0.0121387574
 C          7.4293789912       -0.7725323231        0.5667976555
 C          3.9778581810        0.6704566162        0.5111912480
 C          3.6489151850       -0.3282575783        1.4083340631
 C          2.3839110006       -0.8830973209        1.3721815766
 C          1.4430551683       -0.4449281873        0.4387484240
 C          0.0971123978       -1.0328301905        0.3977304685
 C         -0.0788820625       -2.4082849064        0.5572507691
 C         -1.3347781475       -2.9864712327        0.5110724070
 C         -2.4376761173       -2.1726001716        0.3084597049
 C         -2.2659644966       -0.7888194542        0.1528564332
 C         -1.0173748383       -0.2154116501        0.1915761573
 C         -3.5964605571       -0.1083308212       -0.0530297221
 C         -3.6702492870        0.6811600428       -1.3379368002
 C         -3.4796018368        0.2343408326       -2.6268297530
 C         -3.5942760731        1.1480453669       -3.6662351234
 C         -3.8929878374        2.4782976078       -3.4126457065
 C         -4.0851858796        2.9306215479       -2.1168866315
 C         -3.9726165367        2.0249916550       -1.0749824061
 C         -4.1141191426        2.1930259952        0.3629459731
 C         -4.4100225884        3.3087441907        1.1284403121
 C         -4.4824638951        3.1682451636        2.5051318297
 C         -4.2633335888        1.9391032674        3.1086154465
 C         -3.9664273000        0.8161180282        2.3477622763
 C         -3.8947448803        0.9527850257        0.9791709474
 C         -4.5514844417       -1.2759086323       -0.0023856106
 C         -5.9226344746       -1.2646620144       -0.1333473364
 C         -6.6042341619       -2.4712227281       -0.0465110446
 C         -5.9218042207       -3.6596994982        0.1670950801
 C         -4.5426346291       -3.6749441834        0.2987044168
 C         -3.8556658486       -2.4748885732        0.2131095190
 C          1.7985214095        0.5648005365       -0.4561462490
 C          3.0646220597        1.1185455047       -0.4232214165
 H          5.7630737789        0.3623789602       -2.1424225752
 H          6.9901233183       -1.5337666011       -3.1890997705
 H          8.4946768253       -2.9181527629       -1.8121168582
 H          8.7810876750       -2.4312941842        0.5880088640
 H          7.5353729944       -0.5245229702        1.6115125472
 H          4.3816583038       -0.6456358247        2.1335186293
 H          2.1118539356       -1.6470138965        2.0849937338
 H          0.7896808114       -3.0357552174        0.6945299665
 H         -1.4497153603       -4.0536206054        0.6287343679
 H         -0.9005543072        0.8533119580        0.0890148367
 H         -3.2470470215       -0.8023601337       -2.8234485182
 H         -3.4489133964        0.8184362559       -4.6843597164
 H         -3.9768886745        3.1708816054       -4.2373123240
 H         -4.3174686592        3.9675116977       -1.9246795543
 H         -4.5814362195        4.2680842314        0.6634270087
 H         -4.7124085929        4.0276545996        3.1177199025
 H         -4.3244414644        1.8538949647        4.1834615053
 H         -3.7966706922       -0.1421433724        2.8169804768
 H         -6.4534806425       -0.3385784983       -0.2993319694
 H         -7.6794266891       -2.4841443067       -0.1463038561
 H         -6.4742634097       -4.5856040464        0.2316095761
 H         -4.0154276024       -4.6025279687        0.4651585088
 H          1.0832586330        0.9014054094       -1.1918645382
 H          3.3586781335        1.9037191361       -1.1021824442
