64
 energy: -102.786769753793 gnorm: 0.000042672260 xtb: 6.7.1 (edcfbbe)
O            5.74498318392228        2.35777602055942        0.63274046725615
S            5.71454144675250        0.95833156754570        1.01698123073686
O            6.33249775274049        0.61567171426168        2.28504672673353
C            6.50954760670228       -0.00394676645888       -0.27506471510587
C            6.27432883478310        0.33157259731743       -1.59570485959305
C            6.84094976757002       -0.43644758581805       -2.59885922545810
C            7.62825816452398       -1.53062548986081       -2.27103605203110
C            7.85620124116004       -1.85817911787542       -0.94318437741495
C            7.29025956248454       -1.09279177150285        0.06337247325566
C            4.03789538899078        0.38642051916002        1.00117784287688
C            3.71752089450407       -0.82147790859499        1.62453738588066
C            2.44573624886859       -1.31716827126469        1.54859770550054
C            1.41252765876679       -0.62525674838904        0.84301820934295
C            0.09519101088633       -1.13409614193717        0.75230635809486
C           -0.19827059301665       -2.52364037657262        1.01574089521898
C           -1.44390698398454       -3.04693030871155        0.90134169164462
C           -2.52699801738962       -2.20660975845515        0.52800676641285
C           -2.25770160576459       -0.81106436127011        0.28830976165501
C           -1.01305862393604       -0.29451769550373        0.38156795119061
C           -3.54457462701289       -0.10198731924339       -0.06574029875451
C           -3.48740723632429        0.63241427176639       -1.38402171191192
C           -3.19817672761396        0.12820982868974       -2.63384320887129
C           -3.20029066618519        0.99963273372387       -3.71497069195695
C           -3.48663060429018        2.34689654510154       -3.54232003474168
C           -3.77722509327490        2.85803204939532       -2.28758872255193
C           -3.77581031235330        1.99463425685033       -1.20322444697025
C           -4.03230063141155        2.22911939564640        0.20829591416678
C           -4.35792322468912        3.38640866072856        0.89814653446603
C           -4.54749159798693        3.31017448178661        2.26858696642295
C           -4.41434755566576        2.10324666112895        2.94116569994962
C           -4.08812265841271        0.93971021455257        2.25714477274345
C           -3.89932127354660        1.01127098924896        0.89382120509844
C           -4.54146524711123       -1.23486849983898       -0.04403665407220
C           -5.88313334915849       -1.20058689338741       -0.31329044958140
C           -6.61698494121679       -2.38602981125644       -0.22096215914505
C           -5.99689906156115       -3.58730137255047        0.14051360728255
C           -4.65197257324128       -3.64206000222760        0.41378930037628
C           -3.89207485557739       -2.45586370187796        0.32376455018391
C            1.78201533127845        0.61121059961509        0.22797630015383
C            3.06075117925250        1.09036150941602        0.29526585679915
H            5.66720893131893        1.19554966220303       -1.81629692789407
H            6.66935203939008       -0.18157517795440       -3.63366304586130
H            8.06906134621307       -2.12842199528056       -3.05463999311716
H            8.47364563710805       -2.70684684683037       -0.69058312771574
H            7.45215115825646       -1.31039745014698        1.10786187503710
H            4.48958223947841       -1.33100788075070        2.18036272108683
H            2.21341242088474       -2.22825484985583        2.07502674141031
H            0.61888030507408       -3.17890859582965        1.26979484430675
H           -1.62213575791669       -4.09615306838546        1.08282285899397
H           -0.85697181905832        0.76000491295439        0.22017774673948
H           -2.97440699696445       -0.91993312432653       -2.76995443956077
H           -2.97564740324817        0.62456849357114       -4.70275228668987
H           -3.48262355209656        3.00520093408111       -4.39911234787348
H           -3.99864146260387        3.90701522553000       -2.15848479605922
H           -4.46212673699114        4.32811475104145        0.38010795773155
H           -4.80207422183794        4.20201179867129        2.82284201275341
H           -4.56587911840708        2.06873924026456        4.01015939735878
H           -3.98430093079167        0.00147726130082        2.78257343052104
H           -6.36901286772186       -0.27666176328401       -0.59168818054247
H           -7.67584405758698       -2.37538086895764       -0.42970932070718
H           -6.59400941119835       -4.48562549634357        0.20281078180824
H           -4.17565890861952       -4.56980566375301        0.69102067450482
H            1.05175516380589        1.16125593154322       -0.34266292575719
H            3.34251136816794        2.02024325783242       -0.17486100556913
