64
 energy: -102.786833827461 gnorm: 0.000072606852 xtb: 6.7.1 (edcfbbe)
O            5.78336557972138        2.11530019159643        1.17644085949851
S            5.73709557964278        0.66499359174553        1.13998353631681
O            6.40669984209068       -0.03893914113975        2.21847493064135
C            6.43797671663110        0.11261805198303       -0.41849358106500
C            6.32449236911999        0.92231820482222       -1.53343468377229
C            6.80828981673512        0.46970578783288       -2.74948852156685
C            7.39111204657973       -0.78578014841103       -2.83758053109462
C            7.49870443065110       -1.58976509446424       -1.71261410248606
C            7.01628736419729       -1.14069473734642       -0.49460302949797
C            4.04991625925700        0.13362136792401        1.04916203015875
C            3.70687326241506       -1.15983265579520        1.44826771189496
C            2.42458240781959       -1.60866869280610        1.29748007667904
C            1.40149331270342       -0.78318518699590        0.73378761520107
C            0.07307722466110       -1.24107026769711        0.56867030299914
C           -0.25642127675732       -2.64653324125261        0.62886964097826
C           -1.51547496098448       -3.11672859696720        0.44926279640858
C           -2.57727858517473       -2.20540231046017        0.20576561808267
C           -2.27089712859150       -0.79836032608567        0.15495944380027
C           -1.01427119100596       -0.33122677932629        0.32061482389363
C           -3.53712814353827       -0.01476455018148       -0.10259035931763
C           -3.46678971989045        0.85517910443819       -1.33571359997973
C           -3.19457862828258        0.48022958775342       -2.63383021294405
C           -3.18314751375106        1.46118186963007       -3.61650744479197
C           -3.44202859805920        2.78777712224115       -3.30030042545246
C           -3.71456996651536        3.16911344830032       -1.99628896527153
C           -3.72462977435905        2.19609814085713       -1.00910358456578
C           -3.96418457398277        2.28476787442256        0.42206493200660
C           -4.25373474799139        3.36958479328852        1.23483064731644
C           -4.43098680593603        3.15272114225799        2.59183801336588
C           -4.32182154428216        1.87816850421695        3.13080635516247
C           -4.03134711574487        0.78645414947007        2.32334465955622
C           -3.85458266768130        0.99805597208419        0.97301595743347
C           -4.56857092422191       -1.11206359775645       -0.20427625816942
C           -5.91272605341669       -1.00518782508794       -0.44102451052756
C           -6.68029285380559       -2.17148287684773       -0.49040313414091
C           -6.09150480452651       -3.42647947567936       -0.30069106644784
C           -4.74476212914456       -3.55395065936101       -0.06204078159377
C           -3.95152025697086       -2.38802079736966       -0.01024579265522
C            1.79594619329731        0.53533985779357        0.34430704680487
C            3.08366461451563        0.97074240002744        0.48760019740241
H            5.87723261599413        1.89811851821390       -1.42567570888119
H            6.73144146591916        1.09553600870097       -3.62569632130131
H            7.76680988192344       -1.13795976980649       -3.78649708828024
H            7.95810804448702       -2.56403856482176       -1.78331873813305
H            7.09450726017291       -1.73298291958066        0.40378112486135
H            4.47138545164106       -1.77468193039297        1.89786856679638
H            2.17876494746360       -2.59463402655064        1.65578547248887
H            0.54246841374564       -3.35313562076914        0.78273828331009
H           -1.71992174493762       -4.17633901790287        0.48249498150551
H           -0.83341723994749        0.73129595815144        0.30438877242362
H           -2.99357857582979       -0.55198564305180       -2.88145828421887
H           -2.97068259294732        1.18860776761691       -4.63993591496388
H           -3.42955613774944        3.53263290298882       -4.08287994113118
H           -3.91398234099237        4.20275316637395       -1.75580294990523
H           -4.33965749017925        4.36322074511568        0.82089001483042
H           -4.65769408448846        3.98627523357199        3.24083499019350
H           -4.46344855099040        1.73392637875593        4.19193942163364
H           -3.94551562200343       -0.20465045076770        2.74477610398322
H           -6.37481635603641       -0.03966581834883       -0.58727090061849
H           -7.74135619975783       -2.10405547327441       -0.67602067471274
H           -6.71441810667949       -4.30822241280107       -0.34437715945784
H           -4.29267834158786       -4.52288200898797        0.08374397332440
H            1.07611185601839        1.19398462563051       -0.11297185106289
H            3.38000104248402        1.96495023374782        0.19022953031655
