64
 energy: -102.883160872353 gnorm: 0.000063411996 xtb: 6.7.1 (edcfbbe)
O            6.41786130587438        0.41689030141487       -2.91341493856197
S            5.91897758435278        1.03077927802352       -1.69926844717507
O            5.88545978642667        2.47905521819898       -1.66338580497566
C            6.89352786907402        0.44204645326776       -0.31011078559250
C            7.10485871611054        1.27260869509445        0.77325799537028
C            7.81666490967897        0.79419604154638        1.86161454097131
C            8.30191673021554       -0.50454372872934        1.85200991193182
C            8.08393682879339       -1.32816526504794        0.75773064240424
C            7.37245904048252       -0.85395544966459       -0.33222350400438
C            4.27277492514071        0.40332882752774       -1.36772610607516
C            3.84977779234544       -0.76574456391555       -1.97097384858947
C            2.59615312195068       -1.26711146080611       -1.67350430696154
C            1.76145175294228       -0.60396256682202       -0.77233853991614
C            0.42872574078915       -1.13738836777926       -0.45512827879007
C            0.24406373128051       -2.50917650840437       -0.27237942461403
C           -0.99847360406616       -3.03665086963164        0.03098545534098
C           -2.07939401900859       -2.17687818717053        0.14693253995831
C           -1.89924738702884       -0.79700607311648       -0.03539702103557
C           -0.66261804087186       -0.27262919972415       -0.33057702645705
C           -3.20677725736921       -0.06297845253122        0.14190508367646
C           -3.61305846003734        0.75551245886891       -1.06097156802539
C           -3.81185825083102        0.33120170330403       -2.35675943112038
C           -4.19609328856021        1.26749540847933       -3.30794667000795
C           -4.37605079253619        2.59865098225129       -2.96216779393028
C           -4.17584285651391        3.02904943336551       -1.65989648788952
C           -3.79265721945675        2.10053427952773       -0.70558236081400
C           -3.51642430539949        2.24310284886759        0.71598931137361
C           -3.55295548946594        3.35058977331910        1.54791683110041
C           -3.24004537437947        3.18495480527384        2.88812752635194
C           -2.89571987948103        1.93868000874175        3.39036000591830
C           -2.85674237223895        0.82413747807414        2.56238352165434
C           -3.16811597440690        0.98521647667448        1.22973189069390
C           -4.15863166745923       -1.19691641066623        0.44296725459628
C           -5.51191233632491       -1.13418057891561        0.69441636896874
C           -6.19343021180267       -2.31758909783504        0.94764568899046
C           -5.52813745433418       -3.53497706179233        0.94797502088795
C           -4.16693296639515       -3.60208348623862        0.69665992430375
C           -3.48056044774910       -2.42523514080087        0.44241520313058
C            2.21111691007673        0.57656293316423       -0.17755040649439
C            3.46546606744711        1.07762460744082       -0.47055453942332
H            6.72335363579060        2.28118214263502        0.73895196627943
H            7.99288624377533        1.43427630094495        2.71259943947453
H            8.85657885533223       -0.87605190635019        2.70052266003227
H            8.46843907841858       -2.33662630887108        0.75183175780274
H            7.19579111692308       -1.46282663804184       -1.20491497399171
H            4.50300369200488       -1.25319566059473       -2.67797569521674
H            2.25182103596801       -2.16789629689832       -2.15812823326320
H            1.09635730202288       -3.16808256130401       -0.34704171718088
H           -1.12046805703560       -4.09976530545814        0.17495005628302
H           -0.53967128277907        0.78858938767972       -0.48920387619506
H           -3.67315981388436       -0.70577587063470       -2.62699796494744
H           -4.35780789725421        0.95458765242109       -4.32926803380062
H           -4.67640895427763        3.30898766537750       -3.71906069787758
H           -4.31754841126903        4.06677525177275       -1.39621464902913
H           -3.82111483687490        4.32311817163272        1.16223110076908
H           -3.26520675512070        4.03769670791301        3.55143768981765
H           -2.65636401388802        1.83273149467383        4.43853017162959
H           -2.59000207674249       -0.14650072603179        2.95511085451472
H           -6.03100682479324       -0.18647849655248        0.69398843136738
H           -7.25506753957500       -2.28917000605608        1.14575297095895
H           -6.07995497026007       -4.44235650584123        1.14722492410455
H           -3.65363410530389       -4.55219639748249        0.69805445398317
H            1.58001463862471        1.09187715900716        0.53053256118988
H            3.82565878294209        1.99205620322165       -0.02607762388251
