  48
  -82.9092931400000       0.140078749701453      !
 N         -6.2451702268       -1.4414605741       -3.1114868101
 C         -5.6825980544       -1.0181049665       -2.2081910131
 C         -4.9826049642       -0.5003745506       -1.0907682887
 C         -5.6909524577       -0.0020449868       -0.0008288353
 C         -4.9834325066        0.4981052755        1.0888662004
 C         -5.6844002977        1.0136532598        2.2066377965
 N         -6.2478338315        1.4351011468        3.1104361687
 C         -3.5888020473        0.4993093259        1.0903662427
 C         -2.8858364500        0.0009426099       -0.0010770435
 C         -1.4077727923        0.0014421105       -0.0005406404
 C         -0.7148998587       -1.2168005414        0.0446331071
 C         -1.3888111942       -2.4640854900        0.1251821118
 C         -0.7018242222       -3.6384888307        0.1432237518
 C          0.7054356492       -3.6398553782        0.0778274074
 C          1.3908468337       -2.4656486838        0.0251289136
 C          0.7149026794       -1.2168814649        0.0288025865
 C          1.4070256391        0.0019061167        0.0010333307
 C          2.8855072036        0.0017714991        0.0008626747
 C          3.5879804965       -0.4053600778        1.1296012923
 C          4.9826649290       -0.4067860648        1.1272009685
 C          5.6835981541       -0.8275699618        2.2840322046
 N          6.2467072963       -1.1708177569        3.2205265636
 C          5.6900225674       -0.0017158198       -0.0011888651
 C          4.9818279930        0.4057705919       -1.1283683438
 C          5.6824797154        0.8235578727       -2.2865533959
 N          6.2449784523        1.1647527207       -3.2242593151
 C          3.5871762858        0.4078473751       -1.1286686212
 C          0.7145307586        1.2204054028       -0.0268938743
 C          1.3901132990        2.4693591505       -0.0211787404
 C          0.7043510101        3.6433876271       -0.0728908310
 C         -0.7028553495        3.6416351094       -0.1401142165
 C         -1.3894954635        2.4670172817       -0.1246324117
 C         -0.7152580726        1.2198819765       -0.0443673565
 C         -3.5879367453       -0.4986141293       -1.0925384653
 H         -6.7706948451       -0.0034421796       -0.0006348472
 H         -3.0539789701        0.8846243023        1.9462920343
 H         -2.4674222979       -2.4708659259        0.1767473638
 H         -1.2299774933       -4.5779870068        0.2041261396
 H          1.2345579833       -4.5807672380        0.0745868048
 H          2.4696148347       -2.4732210912       -0.0238594390
 H          3.0529437134       -0.7179034180        2.0144425640
 H          6.7698182918       -0.0038745758       -0.0023859884
 H          3.0514894229        0.7212197700       -2.0129425718
 H          2.4688331437        2.4770896797        0.0290227675
 H          1.2331107914        4.5844832417       -0.0674916286
 H         -1.2312086665        4.5810511106       -0.2004487610
 H         -2.4680463070        2.4734063521       -0.1777148855
 H         -3.0524303140       -0.8839518838       -1.9480538938
  48
  -82.9092874500000       0.139237851645500      !
 N         -6.2594186876        1.1313499391       -3.2259177334
 C         -5.6914151978        0.8009428914       -2.2878461806
 C         -4.9857705292        0.3952790026       -1.1287234982
 C         -5.6898922019       -0.0098838929        0.0019858488
 C         -4.9783019647       -0.4063735783        1.1309352689
 C         -5.6746645464       -0.8255184195        2.2910624972
 N         -6.2338411747       -1.1692456667        3.2297617136
 C         -3.5835583438       -0.3993781019        1.1298957296
 C         -2.8853546174        0.0067852446       -0.0018721360
 C         -1.4068953474        0.0094721186       -0.0038901121
 C         -0.7143652578       -1.2090891832        0.0229117033
 C         -1.3901270807       -2.4579730999        0.0168307699
 C         -0.7046373356       -3.6321645724        0.0684303586
 C          0.7025144782       -3.6305408484        0.1357651891
 C          1.3892861278       -2.4559562824        0.1201061127
 C          0.7153344103       -1.2086827042        0.0400515982
 C          1.4079049541        0.0099133683       -0.0029501126
 C          2.8859279832        0.0075438823       -0.0015175671
 C          3.5887442909        0.5005314760        1.0923384214
 C          4.9834481568        0.4913215433        1.0944000410
 C          5.6849172729        0.9997879297        2.2150441848
 N          6.2485521521        1.4152249116        3.1215317252
 C          5.6910027374       -0.0109056678        0.0057407386
 C          4.9826620638       -0.5021509128       -1.0874904005
 C          5.6823947023       -1.0209114944       -2.2046256781
 N          6.2440573813       -1.4458315826       -3.1079861933
 C          3.5880928135       -0.4926801457       -1.0927001189
 C          0.7150824811        1.2280922194       -0.0463406590
 C          1.3891221964        2.4755052631       -0.1235776871
 C          0.7020685223        3.6499413216       -0.1389903442
 C         -0.7053652420        3.6511786039       -0.0753575510
 C         -1.3909137735        2.4768879609       -0.0260278863
 C         -0.7148235156        1.2282245571       -0.0308850754
 C         -3.5911750547        0.4052588055       -1.1316133901
 H         -6.7696529547       -0.0171206859        0.0026454780
 H         -3.0448848051       -0.7073847777        2.0143140598
 H         -2.4688220776       -2.4656940630       -0.0337090185
 H         -1.2336443629       -4.5731342286        0.0626144649
 H          1.2309358670       -4.5698884742        0.1962593652
 H          2.4678227923       -2.4628518055        0.1732972812
 H          3.0539005535        0.8869274633        1.9477587340
 H          6.7707956011       -0.0194665481        0.0091767479
 H          3.0526882179       -0.8728063205       -1.9506529529
 H          2.4678601918        2.4821270856       -0.1741710412
 H          1.2302430275        4.5896178594       -0.1965748060
 H         -1.2345860897        4.5921111346       -0.0706108317
 H         -2.4698313084        2.4842201428        0.0213291915
 H         -3.0586013557        0.7180355003       -2.0179945944
  48
  -82.9092433900000       0.132895030064689      !
 N         -6.2479813080        0.5209686599       -3.3861837420
 C         -5.6851500239        0.3665555538       -2.4008142795
 C         -4.9835024809        0.1794761679       -1.1846105785
 C         -5.6906752195        0.0002938359        0.0010274762
 C         -4.9820549095       -0.1790903286        1.1858271116
 C         -5.6818650499       -0.3654608901        2.4032244237
 N         -6.2426236656       -0.5202069630        3.3897544167
 C         -3.5873740863       -0.1801502201        1.1861740964
 C         -2.8858513807       -0.0008322149       -0.0008618014
 C         -1.4073840911       -0.0010567576       -0.0015186566
 C         -0.7149967234       -1.1926601842        0.2557668518
 C         -1.3903322645       -2.4193086301        0.4911148979
 C         -0.7035255223       -3.5698576800        0.7276944129
 C          0.7052122275       -3.5696208720        0.7272451166
 C          1.3912083142       -2.4186981657        0.4903615347
 C          0.7149300291       -1.1924971494        0.2553494547
 C          1.4070023560       -0.0009870405       -0.0025464286
 C          2.8855906624       -0.0005601833       -0.0016238367
 C          3.5865671234       -0.1687802391        1.1873232030
 C          4.9812914650       -0.1670001059        1.1875700929
 C          5.6806733331       -0.3405146610        2.4071692425
 N          6.2422272648       -0.4839334309        3.3950145185
 C          5.6903374566        0.0016198537        0.0014279560
 C          4.9835792292        0.1689686124       -1.1862829530
 C          5.6854134616        0.3438924290       -2.4042814091
 N          6.2495993757        0.4879216672       -3.3905518629
 C          3.5888370864        0.1685520727       -1.1890849698
 C          0.7147407400        1.1905975002       -0.2597064224
 C          1.3906765699        2.4170621339       -0.4943449651
 C          0.7043123670        3.5684449634       -0.7280537360
 C         -0.7044333100        3.5688120255       -0.7261098507
 C         -1.3908811662        2.4177026688       -0.4912152840
 C         -0.7151644044        1.1906800073       -0.2587529622
 C         -3.5887529130        0.1792561628       -1.1869019935
 H         -6.7704564307       -0.0001730960        0.0016700894
 H         -3.0513727139       -0.3157102606        2.1142912623
 H         -2.4699957481       -2.4310195784        0.4724619165
 H         -1.2327408078       -4.4934239660        0.9074010289
 H          1.2348784551       -4.4930342096        0.9063420195
 H          2.4708776820       -2.4294980962        0.4708271344
 H          3.0503507768       -0.2970152215        2.1164029770
 H          6.7701289532        0.0029301364        0.0026684809
 H          3.0543997559        0.2961339171       -2.1192861685
 H          2.4703850279        2.4278547571       -0.4767888805
 H          1.2337524729        4.4921752264       -0.9062689564
 H         -1.2338551251        4.4929020249       -0.9023999406
 H         -2.4705196793        2.4292867102       -0.4707736438
 H         -3.0540876483        0.3140879466       -2.1157616727
  48
  -82.9092408900000       0.132543922607289      !
 N         -6.2520702358       -0.7803233222       -3.3325950776
 C         -5.6877689156       -0.5509896972       -2.3626785989
 C         -4.9847146848       -0.2706864056       -1.1652609098
 C         -5.6907164853       -0.0020061964        0.0042343480
 C         -4.9808761430        0.2681678749        1.1710252075
 C         -5.6796715936        0.5473012036        2.3712343259
 N         -6.2414829881        0.7767371238        3.3426159160
 C         -3.5861488252        0.2692045319        1.1697828183
 C         -2.8859005064       -0.0001075531       -0.0008963409
 C         -1.4074311893        0.0003742809       -0.0031089463
 C         -0.7147140668       -1.2069712520       -0.1708771725
 C         -1.3893703973       -2.4485153587       -0.3109233333
 C         -0.7018707284       -3.6130810936       -0.4615086595
 C          0.7069021889       -3.6115605695       -0.4665168240
 C          1.3923703005       -2.4454933583       -0.3190656087
 C          0.7152197949       -1.2059987133       -0.1730293382
 C          1.4067376119        0.0014684209       -0.0039622107
 C          2.8856196310        0.0015440394       -0.0017254499
 C          3.5850704397        0.2390771172        1.1761522119
 C          4.9797985746        0.2371907134        1.1780024736
 C          5.6783032328        0.4801429366        2.3862059170
 N          6.2395700520        0.6792821516        3.3645437024
 C          5.6899479478       -0.0000210435        0.0043022234
 C          4.9845395726       -0.2365812544       -1.1723855326
 C          5.6883538305       -0.4823192214       -2.3768360465
 N          6.2521655907       -0.6820527394       -3.3536301752
 C          3.5898003557       -0.2367091519       -1.1766017883
 C          0.7143704654        1.2084568910        0.1644555224
 C          1.3906259117        2.4484995469        0.3094090904
 C          0.7042935016        3.6140505614        0.4572660615
 C         -0.7044865035        3.6144037470        0.4535709080
 C         -1.3911280666        2.4492610045        0.3035957475
 C         -0.7155201642        1.2083007411        0.1632701207
 C         -3.5900615615       -0.2695896665       -1.1692100529
 H         -6.7704961125       -0.0027205974        0.0061377288
 H         -3.0492779879        0.4755713061        2.0842732844
 H         -2.4689605700       -2.4596685644       -0.2888198221
 H         -1.2305893982       -4.5480121633       -0.5692595536
 H          1.2369857611       -4.5452030105       -0.5786642016
 H          2.4721506466       -2.4532615234       -0.3036285807
 H          3.0476344623        0.4209889969        2.0954795228
 H          6.7697110175       -0.0009339650        0.0066692054
 H          3.0561784580       -0.4169992161       -2.0984540162
 H          2.4703953075        2.4570506564        0.2929396562
 H          1.2336630618        4.5482404397        0.5683758804
 H         -1.2338830443        4.5490165339        0.5611021391
 H         -2.4707521510        2.4595803366        0.2814893818
 H         -3.0562520350       -0.4764984415       -2.0854461795
  48
  -82.9091244300000       0.117175956951262      !
 N         -6.2723942908       -1.2417002407       -3.1749879727
 C         -5.7016490579       -0.8777064982       -2.2514095996
 C         -4.9921364349       -0.4323305896       -1.1091329636
 C         -5.6921147384        0.0021807618        0.0131715380
 C         -4.9761872605        0.4331949801        1.1266957431
 C         -5.6675460401        0.8822384065        2.2786852070
 N         -6.2270802265        1.2505744838        3.2078711138
 C         -3.5815815962        0.4300867820        1.1190929093
 C         -2.8871210572       -0.0038541706       -0.0048203716
 C         -1.4088952739       -0.0044944352       -0.0119430286
 C         -0.7158226170       -1.2233555697       -0.0274629908
 C         -1.3866050147       -2.4747584596       -0.0138376114
 C         -0.6954396204       -3.6467092498       -0.0412619619
 C          0.7131221213       -3.6429786778       -0.0803233998
 C          1.3957279387       -2.4661469236       -0.0727567556
 C          0.7139511070       -1.2213100769       -0.0347510666
 C          1.4038731854       -0.0031644403       -0.0106099856
 C          2.8848033645       -0.0018012950       -0.0036490343
 C          3.5784233485       -0.2416266978        1.1765732724
 C          4.9732008881       -0.2346314785        1.1844140056
 C          5.6686078949       -0.4738192916        2.3952673408
 N          6.2289872037       -0.6677488106        3.3753456804
 C          5.6871329576        0.0061071434        0.0136173958
 C          4.9863056595        0.2425076427       -1.1658757872
 C          5.6952110072        0.4873003038       -2.3677045139
 N          6.2679342915        0.6855150627       -3.3394510747
 C          3.5913597203        0.2415627930       -1.1752822735
 C          0.7128967547        1.2144692278        0.0099560581
 C          1.3932717314        2.4601022050        0.0477094648
 C          0.7094326642        3.6362059870        0.0531862833
 C         -0.6990676295        3.6384191477        0.0124236629
 C         -1.3888894534        2.4656935463       -0.0144313949
 C         -0.7167827152        1.2150053002        0.0012223050
 C         -3.5973984687       -0.4353458582       -1.1196359005
 H         -6.7718914993        0.0049406190        0.0197589263
 H         -3.0399330589        0.7619941739        1.9929640062
 H         -2.4658327890       -2.4870562997        0.0228284847
 H         -1.2215908337       -4.5893132221       -0.0331048189
 H          1.2443104307       -4.5822380828       -0.1108865494
 H          2.4756475203       -2.4649878351       -0.0967674960
 H          3.0368184171       -0.4307624298        2.0919647165
 H          6.7669454606        0.0097879536        0.0204716362
 H          3.0601211873        0.4270290082       -2.0974673898
 H          2.4731449553        2.4602910083        0.0728972366
 H          1.2396075861        4.5760525834        0.0830866038
 H         -1.2262003065        4.5804372539        0.0014860104
 H         -2.4680357572        2.4768127668       -0.0535889338
 H         -3.0686270016       -0.7681087960       -2.0010341597
  48
  -82.9090430400000       0.107506384067257      !
 N         -6.3284003946       -1.1504861023       -3.1580403903
 C         -5.7417793195       -0.8143264472       -2.2335453230
 C         -5.0112690332       -0.4040443843       -1.0913232313
 C         -5.6905385302       -0.0077556085        0.0574752009
 C         -4.9545745329        0.3918689837        1.1696327929
 C         -5.6260453978        0.8004132872        2.3482005490
 N         -6.1664203458        1.1316368532        3.3022310555
 C         -3.5604653952        0.3951750890        1.1343325207
 C         -2.8868137154       -0.0032301944       -0.0151416430
 C         -1.4084616021       -0.0019063381       -0.0441444934
 C         -0.7140591309       -1.2194620857       -0.0741835270
 C         -1.3829428184       -2.4719246392       -0.0758909007
 C         -0.6896007461       -3.6422703102       -0.1141235067
 C          0.7191932647       -3.6359254568       -0.1471518827
 C          1.3999031240       -2.4582108826       -0.1254011850
 C          0.7156903338       -1.2149872647       -0.0798993967
 C          1.4036978038        0.0036675419       -0.0427826888
 C          2.8847644689        0.0047948117       -0.0138407933
 C          3.5554065368       -0.1846758454        1.1885248150
 C          4.9497873377       -0.1817701397        1.2223907827
 C          5.6205844979       -0.3733206294        2.4553837298
 N          6.1615830690       -0.5239146015        3.4535217070
 C          5.6860265656        0.0060110692        0.0557625500
 C          5.0079885523        0.1927811568       -1.1457563619
 C          5.7400106874        0.3829225490       -2.3436639821
 N          6.3294736584        0.5320493451       -3.3141366564
 C          3.6133476525        0.1946625048       -1.1816267162
 C          0.7113744077        1.2202024478       -0.0213687702
 C          1.3898170860        2.4669012826        0.0136920522
 C          0.7036381287        3.6416751639        0.0192213167
 C         -0.7051345317        3.6414181703       -0.0158447050
 C         -1.3931060321        2.4675312090       -0.0396113274
 C         -0.7182519319        1.2183372572       -0.0287269699
 C         -3.6168226027       -0.4028797577       -1.1287628024
 H         -6.7699986404       -0.0101220183        0.0854915147
 H         -3.0025465411        0.7041384263        2.0063558794
 H         -2.4623098381       -2.4860031843       -0.0438325879
 H         -1.2140885471       -4.5858274758       -0.1184267799
 H          1.2519268488       -4.5740633444       -0.1845087632
 H          2.4799615880       -2.4545604897       -0.1447606006
 H          2.9960210701       -0.3332229163        2.1007115214
 H          6.7655536111        0.0065686311        0.0823771880
 H          3.1000890117        0.3423311456       -2.1206473307
 H          2.4698565864        2.4685997699        0.0335269670
 H          1.2320872718        4.5826371516        0.0447080862
 H         -1.2337934103        4.5826090162       -0.0251724745
 H         -2.4725131766        2.4757796718       -0.0742837226
 H         -3.1042067842       -0.7090631128       -2.0291340666
  48
  -82.9089867400000       0.101288599493652      !
 N         -6.2563846332        0.4925809996       -3.3843705618
 C         -5.6905905390        0.3500721217       -2.3987981988
 C         -4.9861993568        0.1745916319       -1.1823668933
 C         -5.6902804969       -0.0158527844        0.0033840932
 C         -4.9791053614       -0.1918665144        1.1872833377
 C         -5.6764100568       -0.3878819615        2.4044279831
 N         -6.2365305435       -0.5475824166        3.3906143548
 C         -3.5843401220       -0.1809954248        1.1860663377
 C         -2.8867739515        0.0108366476       -0.0009192659
 C         -1.4070779273        0.0145770459       -0.0032161886
 C         -0.7155700535       -1.1943315346        0.1519268938
 C         -1.3897780811       -2.4365578251        0.2868923483
 C         -0.7001947269       -3.6005658803        0.4318890945
 C          0.7090709433       -3.5974694315        0.4447353535
 C          1.3940556482       -2.4301742744        0.3063412891
 C          0.7139185576       -1.1931935544        0.1547637847
 C          1.4040535889        0.0147777490       -0.0025794066
 C          2.8855656411        0.0112576379       -0.0001563454
 C          3.5834200289        0.0338984998        1.2011150149
 C          4.9783562670        0.0218934790        1.2020706460
 C          5.6776290142        0.0458200730        2.4337975935
 N          6.2420434508        0.0664379590        3.4301999946
 C          5.6873754600       -0.0157288654        0.0046714716
 C          4.9820025958       -0.0376717525       -1.1953704395
 C          5.6853752706       -0.0780579789       -2.4242293332
 N          6.2487363830       -0.1136248168       -3.4208102982
 C          3.5871718627       -0.0224080510       -1.1991426305
 C          0.7139386360        1.2221887834       -0.1616976114
 C          1.3940964207        2.4591581045       -0.3135218579
 C          0.7088614716        3.6262997314       -0.4523803728
 C         -0.7005462624        3.6292226173       -0.4403635608
 C         -1.3902107383        2.4651462652       -0.2957951040
 C         -0.7157859742        1.2231517898       -0.1595831804
 C         -3.5913692152        0.1908405492       -1.1854919623
 H         -6.7700615110       -0.0276219285        0.0048234316
 H         -3.0455231345       -0.3195948217        2.1121189553
 H         -2.4695820914       -2.4469097814        0.2671740384
 H         -1.2275973761       -4.5370212240        0.5334927358
 H          1.2387864791       -4.5310776684        0.5589480694
 H          2.4742728113       -2.4310595838        0.3061100838
 H          3.0457202344        0.0604375728        2.1376394191
 H          6.7670956933       -0.0278897573        0.0066006855
 H          3.0518605340       -0.0393962414       -2.1372723255
 H          2.4743914652        2.4596302855       -0.3132405885
 H          1.2384601341        4.5600119647       -0.5667357796
 H         -1.2276215668        4.5658035727       -0.5425290942
 H         -2.4701255755        2.4745674733       -0.2772448271
 H         -3.0582498912        0.3377515489       -2.1135309373
  48
  -82.9087709100000       8.060685296392568E-002 !
 N         -6.2918294388        0.0956980806       -3.3894819501
 C         -5.7131834209        0.0697583922       -2.4015137953
 C         -4.9956671408        0.0345598460       -1.1805765109
 C         -5.6884000278       -0.0060670623        0.0263788612
 C         -4.9666158767       -0.0434693420        1.2161943126
 C         -5.6522361252       -0.0822557356        2.4551945899
 N         -6.2044359078       -0.1157970706        3.4579827932
 C         -3.5717872640       -0.0424007929        1.2003137428
 C         -2.8866368437       -0.0000637730       -0.0078238856
 C         -1.4051569708        0.0016996011       -0.0215844022
 C         -0.7135318714       -1.2131064736        0.0555655019
 C         -1.3896015950       -2.4594680527        0.1271287518
 C         -0.7002088979       -3.6303734641        0.1986341432
 C          0.7094027015       -3.6282995369        0.2028198174
 C          1.3955480262       -2.4553974425        0.1333474815
 C          0.7159191537       -1.2113289877        0.0561220660
 C          1.4045400709        0.0050221032       -0.0210859441
 C          2.8862786957        0.0059174870       -0.0071601893
 C          3.5713933076        0.0533316736        1.2006922544
 C          4.9661873094        0.0502748691        1.2165463764
 C          5.6517939374        0.0970613949        2.4553105925
 N          6.2092748164        0.1389434763        3.4548317038
 C          5.6877827459       -0.0004668139        0.0271195867
 C          4.9949714560       -0.0473279279       -1.1795514737
 C          5.7121194289       -0.1000194269       -2.4000549047
 N          6.2899185302       -0.1432008177       -3.3879914890
 C          3.6000878432       -0.0437826438       -1.1980896546
 C          0.7131481497        1.2192015377       -0.1050905081
 C          1.3899996671        2.4645420713       -0.1861217238
 C          0.7011882262        3.6354782268       -0.2617264452
 C         -0.7084535725        3.6342967084       -0.2583385104
 C         -1.3952456987        2.4622220881       -0.1813457007
 C         -0.7164098506        1.2176631173       -0.1050863227
 C         -3.6007803912        0.0395130598       -1.1990180262
 H         -6.7681746620       -0.0085379759        0.0392937612
 H         -3.0237784144       -0.0731700738        2.1307474238
 H         -2.4698620370       -2.4642846348        0.1208587012
 H         -1.2271288285       -4.5711087115        0.2513361034
 H          1.2388675146       -4.5673515673        0.2598532384
 H          2.4758473732       -2.4565941368        0.1337010957
 H          3.0235545709        0.0920154192        2.1308656943
 H          6.7675199395       -0.0039348246        0.0401509108
 H          3.0749600395       -0.0808006048       -2.1413430815
 H          2.4703108238        2.4679104928       -0.1864279765
 H          1.2284076708        4.5755158832       -0.3232217794
 H         -1.2375049916        4.5735388476       -0.3161991385
 H         -2.4755151183        2.4645526573       -0.1761811841
 H         -3.0758326767        0.0723780823       -2.1425612769
  48
  -82.9082940700000       4.866665250497237E-002 !
 N         -6.6545386105       -1.5009537919       -2.6536418083
 C         -5.9627125236       -1.0646941970       -1.8519333727
 C         -5.1064486597       -0.5316392942       -0.8573240742
 C         -5.6526119715       -0.0138864952        0.3139263276
 C         -4.7972855663        0.5041076308        1.2825875931
 C         -5.3260393257        1.0406357648        2.4823021191
 N         -5.7458059518        1.4803608916        3.4530004162
 C         -3.4178311356        0.4991646503        1.0835532664
 C         -2.8759700862       -0.0241837897       -0.0864885619
 C         -1.4066362557       -0.0309344660       -0.2457039234
 C         -0.7038930592       -1.2438271849       -0.2205428770
 C         -1.3621767054       -2.4996493645       -0.1469707433
 C         -0.6612468601       -3.6660649617       -0.1503450599
 C          0.7454221238       -3.6500801076       -0.2233601158
 C          1.4165262522       -2.4668854855       -0.2593039431
 C          0.7257926641       -1.2265889087       -0.2395703432
 C          1.4080416217       -0.0008374237       -0.2442472165
 C          2.8767692655        0.0092025690       -0.0852780164
 C          3.4245967521       -0.4415074097        1.1121154861
 C          4.8041059941       -0.4210179004        1.3100010572
 C          5.3399552417       -0.8889519145        2.5350145177
 N          5.7613952805       -1.2685556735        3.5301537477
 C          5.6539075215        0.0541985965        0.3149017380
 C          5.1023461573        0.4987814705       -0.8835331300
 C          5.9519791149        0.9906977310       -1.9046528340
 N          6.6374599985        1.3960569573       -2.7277754824
 C          3.7218734419        0.4738323379       -1.0864784202
 C          0.7047042115        1.2096746385       -0.3313230598
 C          1.3598384820        2.4688171178       -0.3680637321
 C          0.6571428719        3.6287064128       -0.4818396592
 C         -0.7491434649        3.6043639561       -0.5586258602
 C         -1.4180874227        2.4217684999       -0.4860236204
 C         -0.7248933116        1.1899711913       -0.3520672084
 C         -3.7255212189       -0.5369937437       -1.0594918573
 H         -6.7213447133       -0.0133029238        0.4681068497
 H         -2.7648864775        0.8994499613        1.8455721244
 H         -2.4404262901       -2.5207700552       -0.0948419911
 H         -1.1782398570       -4.6125403919       -0.1030716270
 H          1.2854875608       -4.5844435393       -0.2471253971
 H          2.4948884424       -2.4603005774       -0.3189875106
 H          2.7762740652       -0.8038535677        1.8967560688
 H          6.7223123871        0.0766316047        0.4696389999
 H          3.3131661573        0.8112563824       -2.0279534564
 H          2.4374877997        2.4987874003       -0.3105039110
 H          1.1730132160        4.5762527065       -0.5188093516
 H         -1.2902628458        4.5317225419       -0.6700602945
 H         -2.4964289947        2.4068862737       -0.5450796230
 H         -3.3201845649       -0.9351198059       -1.9784253925
