70
 energy: -110.373590149740 gnorm: 0.000049957386 xtb: 6.7.1 (edcfbbe)
O           -4.19111040315407       -3.97700765574179        1.22897251300264
C           -3.01210066017237       -4.23706331246346        1.33667985494240
C           -1.93095940899512       -3.26331501101016        1.42545060545159
C           -2.17770145780895       -1.93882732307395        1.50761772026757
C           -1.04887101844054       -0.98451275794389        1.65296727342926
C            0.17693846767442       -1.43331860895852        0.85154993483520
C            0.08489753452852       -1.34165308832363       -0.65536902330793
C            0.74734077259231       -2.32517929036979       -1.39990916172409
C            0.72370275929580       -2.35989069034151       -2.77913156074266
C            0.01423102155072       -1.40084680321608       -3.48182412249909
C           -0.64755445572256       -0.41954808103808       -2.77494348939019
C           -0.61028314777804       -0.36940565986308       -1.38030253335070
N           -1.33406946657476        0.69214473188954       -0.75083460022272
C           -2.71331607540790        0.47912761911239       -0.58712246362933
C           -3.33801240789736       -0.65511572842900       -1.10541354339942
C           -4.69264271071398       -0.87198548566940       -0.92307869176216
C           -5.46342004324640        0.04191235769027       -0.22766003539688
C           -4.86167825719777        1.17320167380529        0.29504039677705
C           -3.50297058469076        1.38058597829565        0.12947826199598
S           -2.76496974003587        2.79930688371297        0.89812412317177
C           -1.47042601620447        3.07560083610468       -0.28219005890233
C           -1.06196436959789        4.37810142287860       -0.50705625266441
C            0.00266956558059        4.64051766106659       -1.35008975499678
C            0.66485309534443        3.58210843026549       -1.94350460396990
C            0.24318097507500        2.28158288906733       -1.73490005838583
C           -0.85620568271847        1.99816725835040       -0.92544335493099
P            1.64185024033487       -0.52487313363227        1.62409761251841
O            1.74532669170804       -0.91823544886558        3.04134561383597
C            3.09190396487633       -1.01236796523967        0.64092101890038
C            4.09042844612907       -1.70797127202176        1.31099461939488
C            5.22442668484117       -2.12285296606071        0.63501091494167
C            5.36328205060369       -1.83963599580869       -0.71419867698952
C            4.37062661243293       -1.14146523523758       -1.38480634905966
C            3.23474402201801       -0.72671248881771       -0.71297181080149
C            1.47468518001012        1.29004618206327        1.50496674837679
C            0.59536892301288        1.88501130851948        2.40376868878497
C            0.52341237235339        3.26153165172888        2.50328305010870
C            1.35082995968244        4.05419165049284        1.72480518050541
C            2.24645385854612        3.46503215371465        0.84969259011880
C            2.30944120553635        2.08695087634566        0.73479971036815
C            0.45231701698804       -2.86686822545855        1.26080690298901
C           -0.54641533556851       -3.71369994209093        1.49574163254643
H           -2.67536008427329       -5.29176981406141        1.37361305063944
H           -3.19295686197758       -1.57285645447119        1.53252135170223
H           -1.34309337762820        0.03576752901499        1.42477392976989
H           -0.74435484172973       -1.01149754972782        2.71181478767354
H            1.29789151452066       -3.09180448851835       -0.87971791990079
H            1.25381726857627       -3.14100783550959       -3.30210045514651
H           -0.02963492360826       -1.41974687640676       -4.55984622605261
H           -1.22098540979098        0.33474539843915       -3.29589738343798
H           -2.75798229856398       -1.38660652793201       -1.64525756183090
H           -5.14022833736381       -1.76815323996237       -1.32439472473781
H           -6.51916809305666       -0.12514281808150       -0.08274629477251
H           -5.43380836138122        1.89738878493827        0.85486564887601
H           -1.57876381708565        5.17832372224776        0.00052613122780
H            0.31782984764599        5.65745390837077       -1.52312129916008
H            1.51612460387470        3.76182230759169       -2.58241942507009
H            0.77787514597168        1.47603333350356       -2.21177202139629
H            3.95949036316566       -1.91256681097798        2.36481925736987
H            5.99749332290139       -2.66447701286361        1.15989437322026
H            6.24748512652921       -2.16114779986230       -1.24440915217759
H            4.48151376152354       -0.91952779582765       -2.43598779063746
H            2.46011147632421       -0.18720345295489       -1.23584810696360
H           -0.01171231833825        1.26396409292736        3.04579298686494
H           -0.17014881907454        3.71412232802544        3.19627890871153
H            1.30735380390039        5.12938803309187        1.81203897542641
H            2.90774323421294        4.07964392178317        0.25755166103321
H            3.02273614836536        1.63880158104508        0.06056160405039
H            1.48489176810080       -3.18092693068705        1.33771474165931
H           -0.36239802052441       -4.74578792854729        1.75538613191399
