70
 energy: -110.379733139417 gnorm: 0.000024439766 xtb: 6.7.1 (edcfbbe)
O           -2.66828871583550        3.28511816880619       -1.94059418018063
C           -2.19164641091477        3.26235488822807       -0.82594437906247
C           -1.14919830986384        2.35489886463696       -0.36341951508156
C           -0.67516957883509        1.37794028202111       -1.16228514289409
C            0.42626427437191        0.46223715583147       -0.76990343105466
C            0.72477189198735        0.40706668944453        0.73937266306095
C            0.13741256348939       -0.80774165029315        1.43615434743163
C            0.85547061277984       -1.42324135477066        2.45829289205380
C            0.36892277361222       -2.51941492065101        3.14470089922309
C           -0.87926464070374       -3.02987857513707        2.83219666230662
C           -1.62419556365331       -2.41719980747713        1.84493018509961
C           -1.13611853907554       -1.31112500697433        1.15236480519485
N           -2.00191246221309       -0.72955492796797        0.16969991789209
C           -2.95647908675343        0.17186093252271        0.64320277986056
C           -2.94379605286935        0.56277330416893        1.98319525511322
C           -3.85582355150973        1.47550855427066        2.48167998450935
C           -4.82080494915090        2.02201267949939        1.65654824285892
C           -4.85488895395897        1.64422104300770        0.32618750149667
C           -3.93417631485717        0.73982432377437       -0.17866419859691
S           -4.05360729099909        0.38817755579704       -1.90655146531247
C           -3.04856658635381       -1.06713049330467       -2.02438438088542
C           -3.15599903971743       -1.79754508717390       -3.19775792752782
C           -2.35506676954149       -2.90341906809190       -3.42181254151549
C           -1.44014908883924       -3.27365027865872       -2.45420933255359
C           -1.34318363760034       -2.55773388697195       -1.27357024683985
C           -2.15011248703231       -1.44416374410955       -1.02276007277095
P            2.60152912707200        0.48090010563308        1.01616413151519
O            2.99306787600846        0.98554315469133        2.34536548806693
C            3.32035273428387       -1.15135940550619        0.63213981735357
C            4.38968919601312       -1.53988762256524        1.42997626098058
C            5.01900437174805       -2.75223059040986        1.21177529126079
C            4.57865221499761       -3.58307873130712        0.19410762913600
C            3.51312428886838       -3.19759916430627       -0.60409268408111
C            2.88424379035920       -1.98356145498339       -0.39133808524183
C            3.21154469814851        1.61699932973280       -0.27901739234571
C            3.00667768701027        2.97163438679814       -0.04459848100391
C            3.48464139832413        3.91086706494615       -0.93952087658802
C            4.17851008756871        3.49838476150175       -2.06687847620877
C            4.39700580237267        2.14929366564028       -2.29448848755222
C            3.91495819064747        1.20502991477204       -1.40371658105393
C            0.22676097718982        1.61012922125426        1.48858235003202
C           -0.63021977180889        2.49462679102654        0.98658432842989
H           -2.54055648189848        3.97787801775097       -0.05489884547632
H           -1.06519319277262        1.27687173519026       -2.16602432297979
H            0.21674528958050       -0.53893405027060       -1.15476659103301
H            1.31783472796652        0.81572661957112       -1.30463367541752
H            1.81690753064805       -1.02139419990514        2.73763266633850
H            0.96452607613491       -2.96805817590321        3.92479252575825
H           -1.27501895061777       -3.88432344189212        3.35896240338394
H           -2.61078404967409       -2.78189614484302        1.59647284616539
H           -2.20028207665467        0.15207671212367        2.64721243301322
H           -3.80482623447632        1.75516397433220        3.52296019183989
H           -5.53773859879220        2.73353793912743        2.03542012162999
H           -5.59123766944483        2.05744984493682       -0.34741842589889
H           -3.87026413171377       -1.47254422751989       -3.93910913597549
H           -2.44383037764523       -3.45795980346477       -4.34257313012913
H           -0.79467797520725       -4.12485050630957       -2.60834431759414
H           -0.62623526477058       -2.87188295640541       -0.53080698396637
H            4.71129067740813       -0.87950409084021        2.22394830010846
H            5.84962061257065       -3.04840754986847        1.83526855234506
H            5.06546881307449       -4.53170908590912        0.02289314891190
H            3.17082087933033       -3.84441541353806       -1.39854403500714
H            2.05871041342375       -1.68968755093254       -1.01959592444988
H            2.47620090378969        3.27172523911948        0.84854147061892
H            3.31989094506925        4.96262393157390       -0.75744891700256
H            4.55530029281185        4.23083887722569       -2.76529172306379
H            4.94552728826585        1.82969656657238       -3.16824181217411
H            4.08556884139996        0.15269210394015       -1.58049626642939
H            0.58515176519646        1.69051839894651        2.50609017559288
H           -0.97772411654129        3.33073064111978        1.57546772402135
