70
 energy: -110.328432953383 gnorm: 0.000046233169 xtb: 6.7.1 (edcfbbe)
O           -2.93334755860321       -3.42542354858200       -0.37231179658056
C           -2.10944533702911       -2.78897937560095       -1.03066000901225
C           -1.29538218047717       -1.73121311747973       -0.54790128019837
C           -1.42145188228889       -1.26088686358061        0.85187088580205
C           -0.03522710721221       -0.92937206511262        1.39679803162466
C            0.71408963439896        0.10432425923654        0.54253484550158
C            0.32158387740900        1.51824651435026        0.91065125138195
C            1.20270566957167        2.40200484057294        1.51616481771739
C            0.82152051688199        3.69658787130272        1.82772765888534
C           -0.46038905317280        4.13013416933022        1.53760035566740
C           -1.36357050752561        3.25368084190504        0.96409042452360
C           -0.98444658224352        1.95206812499626        0.65647425319157
N           -1.96278441127833        1.07273761005744        0.11741541847908
C           -2.28194154133181        1.19090296885563       -1.21397037683527
C           -1.56631335009656        2.08754619514553       -2.02673910092910
C           -1.81824264720381        2.20745614822299       -3.37364281120298
C           -2.80116080932965        1.43239740926138       -3.97994984832059
C           -3.53666809102932        0.56563892015860       -3.20374687764325
C           -3.29669457181886        0.44882904017973       -1.83611064038869
S           -4.40129665447741       -0.59000685744004       -0.95084776541414
C           -3.80757701855130       -0.48409077463610        0.67090402133164
C           -4.64580960979127       -0.97018002879716        1.65223218629974
C           -4.35930286689710       -0.82423419482307        2.99694978989714
C           -3.24563334309563       -0.03841877052761        3.35487463768924
C           -2.38086609500624        0.42723018502838        2.42712165348048
C           -2.42455031278609        0.00213383054841        0.98372849867791
P            2.51668828658945       -0.25266716366159        0.95941189422725
O            2.76878962105955       -0.26923027030808        2.41185747604989
C            2.83827530609448       -1.87480732023673        0.19632569763859
C            2.94009827981079       -2.97065352243296        1.04342177096666
C            3.19753002054351       -4.22810731822541        0.52647989633410
C            3.35998270964778       -4.38970411650959       -0.83983527319406
C            3.27647834197157       -3.29404656629571       -1.68547827876051
C            3.01938010594012       -2.03627296433662       -1.17150820531625
C            3.65928314371345        0.84325376148702        0.03841620141278
C            4.99494389085068        0.52702814109139        0.26478426013577
C            5.99970835478839        1.24864696736663       -0.35209545148877
C            5.67154990817238        2.29140110331534       -1.20471815934112
C            4.34280453971470        2.61100567794933       -1.42935668777194
C            3.33377448024314        1.89183928630050       -0.80988406332337
C            0.52226255016205       -0.16971669760538       -0.90626115135197
C           -0.34961482158055       -1.09577639775458       -1.37495679425215
H           -1.94418021608367       -3.04911817703781       -2.09585172345764
H           -1.88868178610659       -2.04334828931549        1.45885600972057
H           -0.08414505157201       -0.59183125623530        2.43281292106568
H            0.54426078766589       -1.86020149733817        1.38652007363240
H            2.20232218009452        2.07062044101131        1.75666314580095
H            1.53061375834747        4.36198584497026        2.29539730077927
H           -0.76348824938195        5.13916268340124        1.77009473377527
H           -2.37691528838772        3.56158145150566        0.75366111761852
H           -0.78942595638033        2.68616711029941       -1.57881735368406
H           -1.23974706757586        2.90414117521220       -3.96077753137129
H           -2.99394205722908        1.51446768106170       -5.03764181549668
H           -4.32425543742723       -0.03492274832425       -3.63303557454958
H           -5.57383053311861       -1.42731218137051        1.34000456012910
H           -5.02413632077869       -1.21574149958315        3.74799440344203
H           -3.11161371189947        0.24288088602212        4.38917445146095
H           -1.58206328537118        1.08418446791452        2.72499817918070
H            2.82480592013978       -2.81798985201330        2.10838993375682
H            3.27288542811429       -5.07846506949814        1.18819294174597
H            3.56034714478992       -5.37004477473558       -1.24625280637376
H            3.41637612359486       -3.42104045384538       -2.74885184757480
H            2.96895631439458       -1.18017841958143       -1.82738521576712
H            5.22754683534955       -0.28881491603829        0.93798913208116
H            7.03446215371193        0.99873975748291       -0.16976433031126
H            6.45249476432407        2.85716528701193       -1.69054108596036
H            4.08688923456034        3.42693263726479       -2.08906727379948
H            2.30265036759857        2.16407403831279       -0.97742132977624
H            1.12916787342663        0.39352639607137       -1.59789353420770
H           -0.35568144937955       -1.33690519216236       -2.42978713138514
