  70
       -110.33866898
 O         -3.0150180173        3.4051714223       -1.2476989067
 C         -2.3631684755        3.4120700020       -0.2293993006
 C         -1.1974345516        2.5771796117        0.0419876685
 C         -0.8353597486        1.5965760577       -0.8100619982
 C          0.3969183103        0.7935185869       -0.6106260418
 C          0.8533494080        0.7203283672        0.8513136894
 C          0.2296071029       -0.3953230294        1.6761007514
 C          0.8614363681       -0.7478061504        2.8695873668
 C          0.3845342673       -1.7471177416        3.6938420727
 C         -0.7700707992       -2.4307159302        3.3537753399
 C         -1.4388974589       -2.0669339777        2.2046334951
 C         -0.9661489871       -1.0503122390        1.3757083802
 N         -1.7911808020       -0.7264545562        0.2530901800
 C         -2.9211949068        0.0448574810        0.5354356613
 C         -3.0740957279        0.6210147941        1.7968018866
 C         -4.1740844166        1.4010828908        2.1056866288
 C         -5.1659286024        1.6162802181        1.1679134397
 C         -5.0275293156        1.0617783562       -0.0918048940
 C         -3.9147341350        0.3034980297       -0.4104753745
 S         -3.7960258889       -0.2464341999       -2.0889997425
 C         -2.5641231984       -1.5106093358       -1.9372930068
 C         -2.4464827588       -2.3939002018       -2.9980814158
 C         -1.4711729140       -3.3757489421       -2.9989460966
 C         -0.6122657557       -3.4664920131       -1.9200740351
 C         -0.7350307587       -2.5958476368       -0.8520582130
 C         -1.7174345404       -1.6017782524       -0.8287178826
 P          2.7278998188        0.4635843486        0.8344241106
 O          3.4323254472        0.7005321116        2.1058142776
 C          2.8978639929       -1.2332060031        0.1940866327
 C          3.2006491889       -2.2290429379        1.1120360118
 C          3.2944068436       -3.5473461400        0.7036174544
 C          3.0962504081       -3.8721450801       -0.6284128209
 C          2.8071422374       -2.8779004298       -1.5497558670
 C          2.7006637051       -1.5610874863       -1.1417081369
 C          3.4010040175        1.5881314957       -0.4390057150
 C          2.9909682371        2.9149663726       -0.4758582659
 C          3.6182523552        3.8074477960       -1.3262301521
 C          4.6650140451        3.3822345678       -2.1290143604
 C          5.0930666672        2.0662060564       -2.0713421501
 C          4.4667696752        1.1696140895       -1.2226272625
 C          0.5648959357        1.9878886073        1.6020380275
 C         -0.4091105431        2.8204449384        1.2398953477
 H         -2.6214202827        4.1050081526        0.5974008506
 H         -1.4157069255        1.4328414026       -1.7056206954
 H          0.2869451835       -0.2073076681       -1.0284585520
 H          1.1806757237        1.2909335842       -1.1976828709
 H          1.7497601974       -0.2177616175        3.1617283550
 H          0.9139999492       -1.9893901552        4.6024585494
 H         -1.1532915236       -3.2199814786        3.9816454414
 H         -2.3606106563       -2.5589674095        1.9295342126
 H         -2.3135524836        0.4708133140        2.5448700924
 H         -4.2502647925        1.8376694657        3.0901539530
 H         -6.0304031117        2.2165133978        1.4021979962
 H         -5.7720798159        1.2328766377       -0.8534280140
 H         -3.1261396171       -2.2911739593       -3.8297702476
 H         -1.3869417432       -4.0535164220       -3.8333005929
 H          0.1608575460       -4.2187347675       -1.8957594563
 H         -0.0505846852       -2.6897567544       -0.0243447277
 H          3.3713844037       -1.9525710566        2.1414231245
 H          3.5272212508       -4.3200977327        1.4207668197
 H          3.1750470632       -4.8996767518       -0.9510184696
 H          2.6628728370       -3.1287234938       -2.5903843012
 H          2.4793329330       -0.7902126581       -1.8635424145
 H          2.1795988228        3.2363764815        0.1610321161
 H          3.2948030501        4.8375198357       -1.3579398658
 H          5.1561724844        4.0809899117       -2.7900405861
 H          5.9212451364        1.7389951025       -2.6821347006
 H          4.8059957832        0.1453572541       -1.1591424112
 H          1.1412620766        2.1417328929        2.5030494504
 H         -0.6375556799        3.7019489731        1.8219253999
