70
 energy: -110.327644174998 gnorm: 0.000033358305 xtb: 6.7.1 (edcfbbe)
O           -1.99803326323842        2.26224747169883       -3.23875133581330
C           -1.66568110801952        2.52111521855281       -2.08133672989390
C           -1.04990098196181        1.62292260407060       -1.17086900919715
C           -0.80046164889039        0.21428684400840       -1.55265622860566
C            0.54008874280799       -0.25400137703994       -0.98486697730419
C            0.63606323247938       -0.07321392366392        0.53243880504615
C            0.01770611230373       -1.22769879268584        1.28971307494556
C            0.76235957674420       -2.07786327697981        2.09194754490493
C            0.16974515271302       -3.12536981403720        2.77744241365183
C           -1.19307585575133       -3.33915694630196        2.67054172448444
C           -1.95267784260026       -2.50772498026745        1.86758899011925
C           -1.35893717697374       -1.45652502737057        1.17859425313953
N           -2.18327709684500       -0.64391572605659        0.35188424726108
C           -2.97345243503935        0.30233456346365        0.96012883026171
C           -2.86095866975276        0.52249012297188        2.34434056273886
C           -3.60689677455410        1.48033115296036        2.99069658060762
C           -4.50393743393744        2.27419592497193        2.28372726912212
C           -4.64937263157398        2.06809096186646        0.93075457376747
C           -3.90782999028632        1.08984973566733        0.27125048947244
S           -4.29669414166576        0.85289277311679       -1.42401352134693
C           -3.21089582005078       -0.40927511420494       -1.89322979317916
C           -3.46348584293423       -1.00144221595789       -3.11312553474081
C           -2.76689015807046       -2.11604227562663       -3.54265894653836
C           -1.88274795667791       -2.73287765759124       -2.63495550139372
C           -1.58000681569175       -2.16467260702230       -1.44690231917481
C           -2.00139161164259       -0.76571033851825       -1.08294916928361
P            2.41881640899080        0.23514630427694        1.09776831268634
O            2.47975085340121        0.59117332839610        2.52536170032398
C            3.55113383744590       -1.14145028933216        0.68051460753554
C            4.53366662251166       -1.38032535969642        1.63596199356935
C            5.48859541990032       -2.35933796706081        1.43108521128894
C            5.46671772172612       -3.10918769571483        0.26623876585624
C            4.49047951340062       -2.87417068056867       -0.68842394102524
C            3.53467144875547       -1.89283254663381       -0.48853259683431
C            2.96554842271853        1.61971619228200        0.03996176013718
C            2.73479318007886        2.89638855795522        0.53685670387984
C            3.11216723303672        4.00829056160806       -0.19375125364074
C            3.73138857339911        3.84752298936496       -1.42297307213593
C            3.98480860504524        2.57570555225858       -1.91071535932776
C            3.60589261044692        1.46105658086615       -1.18272597036969
C            0.02116908714592        1.21717415481978        0.95779824452734
C           -0.66804096225792        2.03085764089259        0.12150868448854
H           -1.82736155544008        3.54277753829013       -1.68191879365539
H           -0.79373135228956        0.12966951051045       -2.64429218670080
H            0.70165263186743       -1.29726623312439       -1.25441305158633
H            1.31441515731265        0.35491635998103       -1.45823544281344
H            1.82388472092966       -1.90939118176635        2.19652977034398
H            0.77657607741342       -3.76742981102123        3.39702086930779
H           -1.66473855134344       -4.14937832750915        3.20457695463916
H           -3.01660184059765       -2.66013699587342        1.76266058378612
H           -2.15456085947650       -0.06448318254632        2.90921026520644
H           -3.48252029356579        1.61813343180840        4.05386161142413
H           -5.08248175537303        3.03361850333186        2.78490806122388
H           -5.34990106751794        2.65072753172611        0.35177370313296
H           -4.27085576147804       -0.60045200688998       -3.70867376170786
H           -2.97506699042682       -2.56034674159173       -4.50108355036693
H           -1.48531945820073       -3.70924725495890       -2.87080634868817
H           -0.97344504049299       -2.69883075010164       -0.73577201661237
H            4.52877277454557       -0.79029535659823        2.54212719444364
H            6.24670885259564       -2.53628831267396        2.17965576840343
H            6.20910577386562       -3.87597689637302        0.10216162298899
H            4.47158426990131       -3.45782304547833       -1.59709321527025
H            2.78202961170583       -1.72397532458164       -1.24129293705051
H            2.26766841008503        3.00240666973296        1.50561810482106
H            2.92616199106067        4.99837799152862        0.19581658679727
H            4.02574746338672        4.71366499631600       -1.99697082004214
H            4.48040243899673        2.45010768217989       -2.86216282717523
H            3.81958214442779        0.47240546439957       -1.56158678944968
H            0.17440113979554        1.49267411434763        1.99196072854538
H           -0.97790853911816        3.01063954681445        0.46090060853228
