  93
       -147.97799486
 N          1.9851208871        5.7891295158        1.7592604960
 C          1.8670026425        4.6962275775        1.4335296473
 C          1.7348525244        3.3486392205        1.0236321105
 C          0.4700093217        2.7759862462        0.9164777452
 C          0.3634056273        1.4498065790        0.5188126015
 C         -0.9463198106        0.8061137516        0.3924485060
 N         -2.0212619658        1.5767091131        0.3192988020
 C         -3.1807789678        0.9315810564        0.1848776866
 N         -4.3188237382        1.6776022513        0.1171439745
 C         -5.6233842877        1.2089600049        0.2969142929
 C         -6.0768725406       -0.0428890562        0.6766438933
 C         -7.4435193170       -0.2260837685        0.8038634710
 C         -8.3420034774        0.8094612030        0.5734822643
 C         -7.8923688849        2.0691785398        0.2256235206
 C         -6.5268802342        2.2717947476        0.0916362377
 C         -5.7400745924        3.4365940921       -0.2220647203
 C         -6.0816172416        4.7460681740       -0.5260798510
 C         -5.0689637917        5.6473048914       -0.7943364146
 C         -3.7377507439        5.2472390153       -0.7697169579
 C         -3.3773500660        3.9442664949       -0.4704741405
 C         -4.3874471202        3.0408844754       -0.1866700155
 N         -3.2983274523       -0.3916640437        0.1059416525
 C         -2.1611768697       -1.0748953004        0.1936966120
 N         -2.2175425138       -2.4356206829        0.1212052128
 C         -3.2702578927       -3.1937088082       -0.3950766728
 C         -4.4395125657       -2.7871234103       -1.0150068712
 C         -5.3105695947       -3.7670166232       -1.4600960833
 C         -5.0253427240       -5.1192173547       -1.3066812071
 C         -3.8452439104       -5.5295853874       -0.7158641197
 C         -2.9600885314       -4.5629735048       -0.2618544194
 C         -1.6656783888       -4.6401181684        0.3649992561
 C         -0.8759974735       -5.7090257957        0.7626546307
 C          0.3313095898       -5.4439747960        1.3802705742
 C          0.7437652681       -4.1350962240        1.6028921223
 C         -0.0250677606       -3.0555696956        1.2042750282
 C         -1.2318781258       -3.3152996474        0.5769563288
 N         -0.9617826381       -0.5184615867        0.3466679437
 C          1.5105028636        0.7184756801        0.2208135311
 C          2.7749459175        1.2827832257        0.3077409164
 Si         4.3216946634        0.2946481832       -0.1843533653
 C          3.9075743183       -1.5519283399       -0.2531041597
 C          4.4488879350       -2.4565607526        0.6547904136
 C          4.1492227080       -3.8052921588        0.5813845799
 C          3.2898720078       -4.2731127527       -0.3983472753
 C          2.7395855626       -3.3865291454       -1.3084500483
 C          3.0538412641       -2.0420779735       -1.2391988102
 C          4.8837418351        0.8561334562       -1.9041593991
 C          5.7072386500        0.0314133350       -2.6669573657
 C          6.1578859107        0.4278645002       -3.9125456519
 C          5.7889868661        1.6622532997       -4.4214782213
 C          4.9659955325        2.4924188952       -3.6794226345
 C          4.5198561591        2.0906186551       -2.4331203958
 C          5.6720185381        0.6399472044        1.0966694914
 C          6.9898399340        0.8703662546        0.7139267097
 C          7.9749177415        1.1056937480        1.6561053059
 C          7.6570137182        1.1136230167        3.0038224212
 C          6.3499983548        0.8875812129        3.4028361814
 C          5.3694991104        0.6539424374        2.4562915608
 C          2.8771026456        2.6047632273        0.7219785360
 H         -0.4172531655        3.3443217364        1.1503134581
 H         -5.3916543437       -0.8494712059        0.8724742407
 H         -7.8158207925       -1.1978555015        1.0920663093
 H         -9.4011958474        0.6276782705        0.6790217362
 H         -8.5836746028        2.8825484281        0.0660475822
 H         -7.1174155540        5.0482570041       -0.5533307917
 H         -5.3111702010        6.6728395005       -1.0298139640
 H         -2.9638133063        5.9678937937       -0.9880528370
 H         -2.3444751139        3.6415667521       -0.4593987150
 H         -4.6652794012       -1.7434190052       -1.1512469276
 H         -6.2313262505       -3.4697432529       -1.9394280340
 H         -5.7310256922       -5.8546979215       -1.6631835349
 H         -3.6103398770       -6.5779227768       -0.6118873593
 H         -1.2067988082       -6.7232741222        0.5981652348
 H          0.9599752409       -6.2607740108        1.7024657037
 H          1.6851966616       -3.9513487720        2.0977210153
 H          0.3049320482       -2.0463007823        1.3803590676
 H          1.3953071409       -0.3085060949       -0.0886961170
 H          5.1195466972       -2.0971792321        1.4227739408
 H          4.5867973246       -4.4940372268        1.2903066921
 H          3.0494659680       -5.3244951043       -0.4544013676
 H          2.0671431542       -3.7465097209       -2.0736360889
 H          2.6385616485       -1.3587989266       -1.9672036930
 H          5.9934433078       -0.9350767842       -2.2754681138
 H          6.7979695199       -0.2252368432       -4.4885197575
 H          6.1401667806        1.9751492443       -5.3939726986
 H          4.6721754478        3.4550254996       -4.0729074996
 H          3.8748472891        2.7442675770       -1.8628739796
 H          7.2424130611        0.8680829989       -0.3369722720
 H          8.9926878150        1.2839669364        1.3398239550
 H          8.4246511236        1.2974928160        3.7412912526
 H          6.0963614908        0.8951400763        4.4532346590
 H          4.3497543870        0.4824430044        2.7728980078
 H          3.8494502822        3.0674685236        0.8176038503
