  138
       -191.10840146
 C          8.1935299175        7.8090565632       -3.3102412134
 C          9.2030495917        7.1794944964       -2.3465472196
 C          9.2716236941        8.0561644399       -1.0879893057
 C         10.5735253911        7.1543865531       -3.0378139279
 C          8.8252166140        5.7629605224       -1.9442860693
 C          9.6397246841        5.0577354740       -1.0611106939
 C          9.3352503340        3.7714369824       -0.6650836271
 C          8.1919316304        3.1313425357       -1.1359584082
 C          7.8470242620        1.7682153368       -0.7091105396
 C          8.8443548274        0.7921718360       -0.5781802840
 C          8.5604409267       -0.5008285191       -0.1882427306
 C          7.2377005583       -0.8267509248        0.0759585871
 C          6.2216514010        0.1503147620       -0.0240300755
 C          6.5278850606        1.4414236904       -0.4220652500
 C          4.9983655363       -0.4944714557        0.3647955759
 C          3.6885038212       -0.0569395366        0.4544130270
 C          2.7039869405       -0.9545678420        0.8547512411
 C          1.3100338431       -0.5391050218        0.9767423464
 C          0.9179000251        0.7979335729        1.1313312122
 N         -0.3428571009        1.1658805739        1.1287238139
 C         -1.2881963843        0.2245033591        1.0192960838
 C         -2.6736629284        0.6792976708        0.9412285243
 C         -2.9511441482        2.0225942768        1.2489771009
 C         -4.2245948035        2.5400723179        1.1894734655
 C         -5.2568104188        1.6878619233        0.8166382577
 C         -4.9958686897        0.3380693872        0.4796468369
 C         -3.7066140487       -0.1642663880        0.5441881944
 C         -6.2574979688       -0.2345519347        0.0955440526
 C         -6.6434697211       -1.5015441885       -0.3130431908
 C         -7.9796254942       -1.7420575999       -0.6070799438
 C         -8.4165848290       -3.0719276501       -1.0544176459
 C         -7.9089590106       -4.2304544107       -0.4720600032
 C         -8.3254091407       -5.4760531220       -0.8947288004
 C         -9.2586318596       -5.6261268043       -1.9181969559
 C         -9.6835318613       -7.0210279722       -2.3481464936
 C         -8.4471709991       -7.7993192445       -2.8197380083
 C        -10.3241764203       -7.7387435138       -1.1517215135
 C        -10.6996248508       -7.0022775703       -3.4933103293
 C         -9.7597843625       -4.4672721767       -2.4983051105
 C         -9.3504965060       -3.2161357973       -2.0744670681
 C         -8.9167283276       -0.7090238093       -0.4668073184
 C         -8.5564563496        0.5571722785       -0.0547383523
 C         -7.2160957585        0.7981178484        0.2102691793
 N         -6.5970290603        1.9510884608        0.6486118456
 C         -7.2178430047        3.1924421053        0.8529744565
 C         -8.0177450755        3.7530981169       -0.1341071298
 C         -8.6195541866        4.9820380259        0.0678999601
 C         -8.4379869470        5.6927088241        1.2484225903
 C         -9.0708123710        7.0511262006        1.5039473310
 C         -9.9888856830        6.9517464175        2.7305056069
 C         -9.9063473256        7.5450945319        0.3198614708
 C         -7.9602545271        8.0783415357        1.7665032293
 C         -7.6343497600        5.1146641118        2.2291792020
 C         -7.0351308685        3.8853987977        2.0448918059
 C         -0.8953797916       -1.1211955365        1.0142263408
 N          0.3671496606       -1.4877098744        0.9717754198
 C          3.0475785234       -2.2887933567        1.1285393009
 C          4.3459230175       -2.7411404443        1.0464458138
 C          5.3326315907       -1.8326458199        0.6815293224
 N          6.6853424411       -2.0188466925        0.5022985291
 C          7.3880597650       -3.2135379806        0.7174890181
 C          7.2410334782       -3.9156868999        1.9090848160
 C          7.9389328618       -5.0887551081        2.1115253811
 C          8.8106480660       -5.5984103596        1.1511600849
 C          9.5605340774       -6.8909433258        1.4308356712
 C         10.4177037616       -6.7106984872        2.6920152667
 C         10.4856259239       -7.2972985612        0.2803982281
 C          8.5429859217       -8.0197002702        1.6497797895
 C          8.9475298618       -4.8839446895       -0.0330820172
 C          8.2457067444       -3.7127796061       -0.2542185540
 C          7.3769670844        3.8300735443       -2.0202091212
 C          7.6891416263        5.1173687390       -2.4168215033
 H          8.1281937017        7.2407625479       -4.2350752223
 H          7.2065822903        7.8695198533       -2.8575613140
 H          8.5116556663        8.8195336096       -3.5588721284
 H          8.3101196098        8.0575963190       -0.5787246926
 H         10.0240698291        7.6941383337       -0.3931900288
 H          9.5215207107        9.0801168788       -1.3577283937
 H         10.5367705044        6.5199763376       -3.9210522517
 H         11.3438668382        6.7705899526       -2.3748994079
 H         10.8570518549        8.1588123578       -3.3450655719
 H         10.5326900138        5.5182966371       -0.6651077127
 H          9.9805535063        3.2637188419        0.0373703503
 H          9.8656376206        1.0583410628       -0.8074512068
 H          9.3486902571       -1.2312641326       -0.0845867961
 H          5.7527022661        2.1901510920       -0.4833536429
 H          3.4437563213        0.9598386605        0.1895849200
 H          1.6358888047        1.5942262909        1.2753698451
 H         -2.1220523940        2.6508841864        1.5328292691
 H         -4.4113969915        3.5796006169        1.4125837908
 H         -3.5168016945       -1.1881070555        0.2621038568
 H         -5.9100701086       -2.2865488233       -0.4194147434
 H         -7.1956924534       -4.1524074276        0.3359276346
 H         -7.9112149456       -6.3474052257       -0.4094999727
 H         -7.7173373176       -7.9048642496       -2.0222745250
 H         -7.9719462843       -7.2818014940       -3.6504117545
 H         -8.7348402472       -8.7946390758       -3.1517797509
 H         -9.6245855263       -7.8328280121       -0.3259657336
 H        -11.1917975652       -7.1834542325       -0.8013306397
 H        -10.6464329334       -8.7366909171       -1.4415300906
 H        -11.6107314880       -6.4861762038       -3.1998082252
 H        -10.2846989569       -6.5211698848       -4.3759523435
 H        -10.9635547132       -8.0237432309       -3.7600209477
 H        -10.4811486802       -4.5211931064       -3.2975069978
 H         -9.7491914689       -2.3367287913       -2.5598459218
 H         -9.9570378577       -0.9210554620       -0.6647459285
 H         -9.2988755434        1.3312360776        0.0695164372
 H         -8.1553100165        3.2307079287       -1.0693365475
 H         -9.2298820182        5.3814824804       -0.7252305213
 H         -9.4343111676        6.6637675911        3.6191792925
 H        -10.4631602658        7.9118881350        2.9214655584
 H        -10.7667023107        6.2104756836        2.5590928790
 H         -9.2945782547        7.6540820536       -0.5726602737
 H        -10.7287453830        6.8654103245        0.1092219469
 H        -10.3294218607        8.5189393777        0.5572147830
 H         -7.2888188084        8.1330405917        0.9120417306
 H         -8.3927516180        9.0631349569        1.9290054964
 H         -7.3749612352        7.8160641299        2.6433129512
 H         -7.4711823391        5.6264840845        3.1653659236
 H         -6.4313829341        3.4509536378        2.8278199195
 H         -1.6117880605       -1.9306591042        1.0535787149
 H          2.2537167149       -2.9627875700        1.4091661044
 H          4.5855907157       -3.7741202649        1.2489476191
 H          6.5892478144       -3.5302538334        2.6790860913
 H          7.8016987300       -5.6087736205        3.0473787223
 H          9.8050889892       -6.4889585391        3.5613167695
 H         10.9793369787       -7.6198929254        2.8952025037
 H         11.1225196508       -5.8932844418        2.5541508628
 H         11.2407638294       -6.5362702193        0.0976419124
 H         10.9973739604       -8.2224311883        0.5374851288
 H          9.9225190291       -7.4695101325       -0.6338583553
 H          7.9182065195       -8.1393242656        0.7669477631
 H          7.8970892453       -7.8124481664        2.4984575853
 H          9.0598815178       -8.9584399176        1.8367009246
 H          9.6026401340       -5.2345930002       -0.8135133576
 H          8.3524923465       -3.1877018910       -1.1919753014
 H          6.4938027232        3.3526863698       -2.4201665877
 H          7.0248989031        5.6104185312       -3.1079984619
