  92
       -140.95101550
 C         -3.8206985273       -7.8950813813       -0.9227011149
 C         -2.7266951969       -8.7472319330       -0.9537681454
 N         -1.4786432280       -8.3217205179       -0.8522290402
 C         -1.2677844613       -7.0281146438       -0.7092521078
 C         -2.2856218238       -6.0735939644       -0.6532692367
 C         -1.9826642482       -4.6476232439       -0.4904386947
 C         -2.6857802207       -3.6834571353       -1.2093812819
 C         -2.3870614894       -2.3429646636       -1.0639927611
 C         -1.3856001964       -1.9173234347       -0.1976325631
 Si        -0.9638493310       -0.0840699200        0.0156629140
 C         -1.7305189056        0.5874111170        1.6115474154
 C         -1.9177365630        1.9572512064        1.7788216630
 C         -2.4677973405        2.4698798376        2.9362690361
 C         -2.8471333011        1.6206338182        3.9741098458
 C         -3.4386210497        2.1596194435        5.2035155795
 C         -3.1059418857        1.6575331387        6.4608766404
 C         -3.6951988703        2.2051226622        7.5864659171
 C         -4.6000710063        3.2430435069        7.4192613405
 N         -4.9321117188        3.7258420660        6.2336092301
 C         -4.3702271251        3.1991178777        5.1634248513
 C         -2.6615891824        0.2491109655        3.8144373085
 C         -2.1148049120       -0.2541474835        2.6504630572
 C         -1.6509888356        0.9159502019       -1.4375335054
 C         -0.8412155284        1.3189029211       -2.4946185253
 C         -1.3548092190        2.0349297722       -3.5578887358
 C         -2.7051049367        2.3763593811       -3.5942760244
 C         -3.2573092449        3.1337924719       -4.7226429958
 C         -4.1951169120        4.1487310893       -4.5376410139
 C         -4.6830344954        4.8294020219       -5.6388713342
 C         -4.2138645656        4.4748656194       -6.8950602562
 N         -3.3296451113        3.5105574689       -7.0884618093
 C         -2.8698182801        2.8621826084       -6.0365272887
 C         -3.5215100410        1.9802630334       -2.5364943570
 C         -2.9991657773        1.2618089436       -1.4800515841
 C          0.9208307006        0.0797681435        0.0785387444
 C          1.7210633159       -0.7067301573       -0.7462019560
 C          3.0960870298       -0.5890370878       -0.7380110888
 C          3.7104165425        0.3241269907        0.1154957942
 N          5.1040343101        0.4480079215        0.1293042938
 C          5.8112429743        1.6294858642        0.0232875467
 C          5.3471554984        2.9261827513       -0.1455155196
 C          6.2826939525        3.9372993144       -0.2543415865
 C          7.6495525643        3.6724603686       -0.2071960490
 C          8.1176756127        2.3816911877       -0.0635991622
 C          7.1966829365        1.3486173613        0.0491473546
 C          7.3220965549       -0.0756676328        0.1849833882
 C          8.4095321207       -0.9332609666        0.2865555897
 C          8.1739188819       -2.2851688249        0.4367292060
 C          6.8743130040       -2.7827590395        0.5015236844
 C          5.7765420244       -1.9494922837        0.4022866713
 C          6.0068706371       -0.5925386898        0.2259399879
 C          2.9240924906        1.1107525058        0.9530719404
 C          1.5488867220        0.9876915586        0.9249601526
 C         -0.6883863321       -2.8865857987        0.5193639670
 C         -0.9763412984       -4.2289193164        0.3781785532
 C         -3.5948189288       -6.5388973142       -0.7683273073
 H         -4.8233845316       -8.2839574912       -1.0103480238
 H         -2.8482624621       -9.8165454656       -1.0629443706
 H         -0.2288546374       -6.7293446034       -0.6520716811
 H         -3.4535531035       -3.9908413038       -1.9049798362
 H         -2.9349195061       -1.6100391974       -1.6388035998
 H         -1.6302000834        2.6298422677        0.9827499135
 H         -2.5897192368        3.5375193457        3.0500959046
 H         -2.3789656816        0.8625563336        6.5513810996
 H         -3.4535496535        1.8397520438        8.5725720925
 H         -5.0824266686        3.7119096905        8.2663723553
 H         -4.6915691773        3.6142606638        4.2165888215
 H         -2.9704821729       -0.4261279346        4.5997764490
 H         -1.9911571003       -1.3217771028        2.5384640821
 H          0.2105555988        1.0713670769       -2.4777314002
 H         -0.7035125081        2.3526928204       -4.3593207298
 H         -4.5196110142        4.4113183177       -3.5404381367
 H         -5.4063032168        5.6220692849       -5.5253621422
 H         -4.5566559202        4.9803467201       -7.7878827742
 H         -2.1642855576        2.0692006339       -6.2496448580
 H         -4.5750563925        2.2207754143       -2.5558063970
 H         -3.6466164042        0.9622171804       -0.6676781217
 H          1.2541769483       -1.4207533949       -1.4096643425
 H          3.7024259650       -1.1888677739       -1.4004991276
 H          4.2904695460        3.1402022234       -0.2029561310
 H          5.9458829355        4.9552954005       -0.3836029664
 H          8.3486760901        4.4905684165       -0.2944206908
 H          9.1767761913        2.1738137552       -0.0435311834
 H          9.4162419303       -0.5450755409        0.2531655185
 H          9.0052154230       -2.9695976132        0.5152303908
 H          6.7208241617       -3.8433600369        0.6355378378
 H          4.7735153999       -2.3430674743        0.4714097328
 H          3.3990374220        1.8029502663        1.6324833476
 H          0.9483129346        1.5987823198        1.5830992796
 H          0.0971215304       -2.5788691636        1.1953968721
 H         -0.4334109779       -4.9620636729        0.9572001511
 H         -4.4224682510       -5.8453631950       -0.7169357577
