  58
        -88.06141003
 C          6.5168913340        2.2738115034        0.7488824784
 C          5.6770595982        1.0953110260        0.3702541773
 N          6.3276960424        0.0000371620       -0.0047208220
 C          5.6761175283       -1.0956620041       -0.3768512496
 C          6.5152916665       -2.2720951442       -0.7634850145
 C          4.2844744129       -1.1499867589       -0.3950041984
 C          3.7117593831       -2.3939730811       -0.6835697928
 N          3.3143309966       -3.4565050236       -0.8943670436
 C          3.5073968095       -0.0007135173        0.0015949387
 C          2.0906310760       -0.0003780300        0.0022411870
 C          1.3414358143        0.8095698031        0.9032666568
 C         -0.0227362876        0.8136986117        0.8989919109
 C         -0.7405104430        0.0016589440        0.0018479495
 N         -2.1487772076        0.0015024491        0.0017997985
 C         -2.8230892629        1.1714054046       -0.2851047623
 C         -2.0985180033        2.3196737636       -0.6468682261
 C         -2.7389987039        3.5101266488       -0.8998813449
 C         -4.1221185402        3.5810215991       -0.8196430823
 C         -4.8450718501        2.4403142103       -0.5220078678
 C         -4.2270842647        1.2249683010       -0.2616688167
 C         -5.0723999159       -0.0023152265       -0.0068234471
 C         -5.9420865273       -0.2583832627       -1.2535281589
 C         -5.9649824513        0.2496447799        1.2241855646
 C         -4.2254937825       -1.2258604659        0.2604572147
 C         -4.8418335563       -2.4416536344        0.5223494503
 C         -4.1176447338       -3.5793381708        0.8283172497
 C         -2.7350341998       -3.5050570773        0.9140577274
 C         -2.0961492871       -2.3143053754        0.6585855615
 C         -2.8217811692       -1.1690165730        0.2896830667
 C         -0.0235722098       -0.8117659017       -0.8947676074
 C          1.3405664397       -0.8095958767       -0.8986941113
 C          4.2854893508        1.1486627195        0.3954362476
 C          3.7143307870        2.3922829578        0.6886069407
 N          3.3171516532        3.4538309516        0.9042176025
 H          6.3076924778        3.1162591751        0.0902450045
 H          7.5673211573        2.0074286894        0.6720649871
 H          6.2952077913        2.5895878629        1.7676433893
 H          7.5652185660       -2.0211580065       -0.6424925979
 H          6.2727180913       -3.1341849106       -0.1435064824
 H          6.3270875911       -2.5487566331       -1.8003167590
 H          1.8633637846        1.3914552835        1.6439230109
 H         -0.5686331349        1.4058557581        1.6192635125
 H         -1.0264420407        2.2630377875       -0.7362632432
 H         -2.1605247326        4.3803943394       -1.1677515700
 H         -4.6344305836        4.5112168132       -1.0092920692
 H         -5.9221445286        2.5040297754       -0.4974486413
 H         -6.5794574956       -1.1257610013       -1.1084048499
 H         -5.3066594282       -0.4391723415       -2.1184989106
 H         -6.5756663184        0.5977787578       -1.4664928361
 H         -5.3455077723        0.4308079130        2.1007320313
 H         -6.5999245245       -0.6084608256        1.4244330925
 H         -6.6027295165        1.1151223735        1.0692954329
 H         -5.9184307870       -2.5082663701        0.4917688558
 H         -4.6286196953       -4.5101428194        1.0189218601
 H         -2.1556160763       -4.3732179851        1.1869263600
 H         -1.0245581341       -2.2551300315        0.7516045121
 H         -0.5701832352       -1.4043349771       -1.6142520195
 H          1.8618827496       -1.3930538472       -1.6386528580
  58
        -88.06132556
 C          6.4980079795        2.2782920780        0.8136260251
 C          5.6670982094        1.0992478953        0.4174356350
 N          6.3252652279       -0.0033378027        0.0791115541
 C          5.6817858026       -1.1002117227       -0.3039006291
 C          6.5285856446       -2.2853654970       -0.6440579103
 C          4.2915443929       -1.1481480284       -0.3737329592
 C          3.7229598791       -2.3906339092       -0.6764375291
 N          3.3262648905       -3.4512806489       -0.8975301460
 C          3.5066912998        0.0066495390       -0.0112656646
 C          2.0901972183        0.0068052677       -0.0391887417
 C          1.3256985210        0.8197281583        0.8458661469
 C         -0.0377956218        0.8133698494        0.8263785932
 C         -0.7404691917       -0.0119568180       -0.0716660119
 N         -2.1483465517       -0.0213867173       -0.0685441562
 C         -2.8218695466        1.1541473973       -0.3329223461
 C         -2.1008476195        2.2855632315       -0.7509271871
 C         -2.7350390393        3.4846738744       -0.9765603321
 C         -4.1085957948        3.5818690361       -0.8069834561
 C         -4.8318332361        2.4568816867       -0.4548804244
 C         -4.2206874171        1.2315694786       -0.2278986254
 C         -5.0667489051        0.0209434238        0.0936349430
 C         -6.0580283372       -0.2023207712       -1.0648544692
 C         -5.8304030336        0.2804185026        1.4073911245
 C         -4.2266740684       -1.2232897407        0.2745852833
 C         -4.8485466175       -2.4338843260        0.5477423313
 C         -4.1287268504       -3.5900240238        0.7875269462
 C         -2.7426012313       -3.5399049063        0.7975115524
 C         -2.0980403313       -2.3536946890        0.5345400542
 C         -2.8223667135       -1.1891861025        0.2294022397
 C         -0.0081861536       -0.8170792939       -0.9629190286
 C          1.3561834670       -0.8058702839       -0.9503590478
 C          4.2757734623        1.1581772917        0.3939874434
 C          3.6976611291        2.4067884620        0.6495836653
 N          3.2935360061        3.4715955237        0.8348786707
 H          6.2752645745        2.5731976462        1.8384882709
 H          6.2808734316        3.1307024420        0.1712712889
 H          7.5503649064        2.0213148774        0.7329307864
 H          6.2545966417       -3.1394226070       -0.0261426077
 H          6.3821835074       -2.5715236041       -1.6850001109
 H          7.5741470377       -2.0395748386       -0.4816282177
 H          1.8351414247        1.4120685147        1.5869813104
 H         -0.5965730041        1.4078460945        1.5347921731
 H         -1.0371623794        2.2077516317       -0.9042161744
 H         -2.1597889854        4.3418219308       -1.2897331845
 H         -4.6149280415        4.5202035641       -0.9702922214
 H         -5.9034011678        2.5414743495       -0.3590550755
 H         -6.6897749468        0.6693331529       -1.2077498081
 H         -6.6997776042       -1.0558816330       -0.8673509229
 H         -5.5133906037       -0.3872560692       -1.9888218343
 H         -5.1255800818        0.4363324699        2.2220289055
 H         -6.4644311241       -0.5646868044        1.6598319963
 H         -6.4564210750        1.1639064425        1.3213539810
 H         -5.9260824520       -2.4809832489        0.5822985160
 H         -4.6445665486       -4.5158149220        0.9884391070
 H         -2.1640017528       -4.4229762683        1.0192628479
 H         -1.0223021127       -2.3148847188        0.5720902241
 H         -0.5416734558       -1.4102895397       -1.6916919769
 H          1.8907565244       -1.3845822239       -1.6846612960
  58
        -88.06124040
 C          6.5144664279        2.2984395397        0.6753103643
 C          5.6761645398        1.1100973902        0.3254422998
 N          6.3252706063        0.0189659397       -0.0572975118
 C          5.6762147830       -1.0915086862       -0.3978677605
 C          6.5328828008       -2.2608066316       -0.7649477370
 C          4.2865990761       -1.1569381995       -0.3812641218
 C          3.6989761570       -2.4052475862       -0.6220263594
 N          3.2686662648       -3.4636607664       -0.7822314183
 C          3.5095953978       -0.0048986565        0.0095733676
 C          2.0922998700       -0.0082002556        0.0150608554
 C          1.3442392118        0.7993387821        0.9184432491
 C         -0.0201548973        0.8030067764        0.9149927403
 C         -0.7378872452       -0.0053074765        0.0148183053
 N         -2.1461314924       -0.0018344181        0.0102989728
 C         -2.8164903127        1.1714568299       -0.2721439002
 C         -2.0881220970        2.3214505839       -0.6200695564
 C         -2.7251862209        3.5156975325       -0.8642791697
 C         -4.1084427905        3.5889071337       -0.7888556541
 C         -4.8349982076        2.4464805232       -0.5070931354
 C         -4.2205186188        1.2272370283       -0.2566586310
 C         -5.0693976673       -0.0016558268       -0.0222269762
 C         -5.9269782271       -0.2441493284       -1.2798429960
 C         -5.9745027773        0.2394342932        1.2015428471
 C         -4.2263948783       -1.2286427439        0.2414349098
 C         -4.8461111741       -2.4465505368        0.4848855789
 C         -4.1258156064       -3.5869988700        0.7895211736
 C         -2.7443709997       -3.5136604179        0.8931846954
 C         -2.1020259366       -2.3213600470        0.6541134029
 C         -2.8230157812       -1.1731653787        0.2852152373
 C         -0.0215315469       -0.8164980990       -0.8841494933
 C          1.3426666513       -0.8149392850       -0.8878009718
 C          4.2843802146        1.1529991438        0.3832059030
 C          3.7096650265        2.3916333972        0.6878696429
 N          3.3059565091        3.4513316592        0.9040762966
 H          6.2802308139        3.1342733044        0.0186386480
 H          7.5646388512        2.0424920209        0.5727882347
 H          6.3165919500        2.6178166665        1.6966337666
 H          6.8887061721       -2.7500707682        0.1410345653
 H          5.9817915418       -2.9868375908       -1.3543032399
 H          7.4014738084       -1.9137668860       -1.3177688709
 H          1.8671507220        1.3797077703        1.6597472675
 H         -0.5659029745        1.3924854915        1.6376197668
 H         -1.0157997002        2.2637434187       -0.7050978853
 H         -2.1437771725        4.3871409371       -1.1216548767
 H         -4.6180620365        4.5220599722       -0.9710695393
 H         -5.9119745990        2.5118673474       -0.4878876224
 H         -6.5721556063       -1.1080628981       -1.1470329421
 H         -5.2829544949       -0.4237529101       -2.1386693635
 H         -6.5518296917        0.6181927092       -1.4939776899
 H         -6.6191718996        1.0991514900        1.0433511268
 H         -5.3637213651        0.4242034186        2.0833477548
 H         -6.6028231258       -0.6251439390        1.3951675886
 H         -5.9223565227       -2.5123647035        0.4417239922
 H         -4.6392369068       -4.5190187500        0.9664396370
 H         -2.1686480093       -4.3839114220        1.1667587349
 H         -1.0315782296       -2.2632207984        0.7599419000
 H         -0.5684393772       -1.4064416948       -1.6055236363
 H          1.8640207899       -1.3962930856       -1.6295372153
  58
        -88.06115389
 C          6.4680447453        2.3534600999        0.6413655704
 C          5.6540277380        1.1436462058        0.3077625761
 N          6.3226178551        0.0592767773       -0.0575438124
 C          5.6957259755       -1.0673840513       -0.3898301621
 C          6.5816021510       -2.2126319396       -0.7626718178
 C          4.3078565126       -1.1583728633       -0.3773254677
 C          3.7340258911       -2.4139949932       -0.6143247039
 N          3.3131860501       -3.4753985044       -0.7787307509
 C          3.5105477475       -0.0188529219        0.0086355400
 C          2.0932165324       -0.0458417658        0.0311141868
 C          1.3486887648        0.7492705268        0.9479876261
 C         -0.0155516482        0.7530309762        0.9495932342
 C         -0.7357248891       -0.0441667639        0.0417515800
 N         -2.1438686945       -0.0219667723        0.0275347206
 C         -2.7946264269        1.1625794944       -0.2552615976
 C         -2.0470242557        2.3035813306       -0.5923345088
 C         -2.6648696391        3.5070362612       -0.8399402862
 C         -4.0475776440        3.5991428156       -0.7787380317
 C         -4.7925829112        2.4665857356       -0.5054870668
 C         -4.1977179286        1.2383966305       -0.2517609970
 C         -5.0663981587        0.0219773569       -0.0246797234
 C         -5.9307550382       -0.1973065423       -1.2817363691
 C         -5.9637359373        0.2682879417        1.2040896164
 C         -4.2433876596       -1.2200761037        0.2313995156
 C         -4.8824058596       -2.4306942504        0.4607690100
 C         -4.1807319226       -3.5840491768        0.7608216644
 C         -2.7991988953       -3.5315200611        0.8759138561
 C         -2.1380357509       -2.3464966684        0.6522250495
 C         -2.8397589515       -1.1851947727        0.2871950586
 C         -0.0226297428       -0.8551750761       -0.8597652036
 C          1.3419100784       -0.8551569369       -0.8670935712
 C          4.2617852686        1.1600763547        0.3641741834
 C          3.6571542320        2.3910159760        0.6395624699
 N          3.2258842096        3.4432200829        0.8366911805
 H          6.2822946033        2.6659446952        1.6682141895
 H          6.1977354916        3.1841746816       -0.0093605989
 H          7.5226496742        2.1243346477        0.5180591394
 H          6.0056128789       -3.1088185814       -0.9737370879
 H          7.1680822247       -1.9440153034       -1.6405676189
 H          7.2795427204       -2.4109499450        0.0493035378
 H          1.8750142490        1.3219230290        1.6930923626
 H         -0.5592220915        1.3371316173        1.6780747545
 H         -0.9749130646        2.2323416564       -0.6667307598
 H         -2.0684192012        4.3709885281       -1.0880366320
 H         -4.5421473241        4.5395604732       -0.9643404671
 H         -5.8685959061        2.5470332984       -0.4957278645
 H         -6.5561164892        0.6686705360       -1.4774164663
 H         -6.5763042947       -1.0622845377       -1.1614515151
 H         -5.2919323662       -0.3623681955       -2.1472481714
 H         -5.3482632994        0.4147736732        2.0897134705
 H         -6.6210837074       -0.5783145482        1.3795118541
 H         -6.5783167601        1.1525766715        1.0630616204
 H         -5.9591998338       -2.4803464220        0.4102598764
 H         -4.7088433597       -4.5099775686        0.9261875208
 H         -2.2384284719       -4.4122160966        1.1473143935
 H         -1.0676945683       -2.3037841359        0.7670494565
 H         -0.5719453784       -1.4410055199       -1.5826335362
 H          1.8611220693       -1.4348527510       -1.6116618006
  58
        -88.06101418
 C          6.5276412979        2.2857816668        0.7082712274
 C          5.6736395867        1.1135302694        0.3443561920
 N          6.3234580708        0.0066978142        0.0027424246
 C          5.6806413304       -1.1048811864       -0.3399352124
 C          6.5448433085       -2.2799275185       -0.6691505404
 C          4.2903392453       -1.1623000664       -0.3659423797
 C          3.6957935945       -2.4053527969       -0.6148146903
 N          3.2580461071       -3.4584550069       -0.7908714486
 C          3.5132633218       -0.0012959892       -0.0051240533
 C          2.0948919539       -0.0054427481       -0.0026986653
 C          1.3476966990        0.7913832761        0.9096649026
 C         -0.0168964964        0.7940153703        0.9070381065
 C         -0.7336810378       -0.0048448842       -0.0018629088
 N         -2.1422732561       -0.0026608514       -0.0019303962
 C         -2.8136399530        1.1740205424       -0.2673251693
 C         -2.0870267112        2.3255012708       -0.6143641910
 C         -2.7246205321        3.5226550920       -0.8416929700
 C         -4.1066706014        3.5979869571       -0.7485354643
 C         -4.8321008690        2.4549007985       -0.4666405608
 C         -4.2171877002        1.2323404443       -0.2344726259
 C         -5.0655164706        0.0037815981        0.0035550778
 C         -5.9480385426       -0.2241546299       -1.2393043010
 C         -5.9447339114        0.2340455179        1.2485923999
 C         -4.2216888708       -1.2285219016        0.2384114719
 C         -4.8410947425       -2.4483051575        0.4734813269
 C         -4.1196963043       -3.5945466307        0.7528764911
 C         -2.7370230975       -3.5254313590        0.8401151041
 C         -2.0950412878       -2.3310607977        0.6099890184
 C         -2.8178171698       -1.1764050989        0.2656812662
 C         -0.0175850499       -0.8057283400       -0.9095030867
 C          1.3471065638       -0.8048104758       -0.9122805730
 C          4.2825737845        1.1647822694        0.3583151993
 C          3.6783753626        2.4052251156        0.5949962344
 N          3.2299830202        3.4563040662        0.7549565218
 H          7.3804550476        2.3367910029        0.0348989800
 H          6.9105548351        2.1528767272        1.7207167928
 H          5.9639968337        3.2140416268        0.6666322503
 H          7.3432199228       -1.9660403437       -1.3379140883
 H          7.0076135213       -2.6559625460        0.2427231747
 H          5.9709776027       -3.0795458461       -1.1279758956
 H          1.8707390679        1.3641578185        1.6570832821
 H         -0.5630457867        1.3763018022        1.6351805286
 H         -1.0159425727        2.2666606352       -0.7124768244
 H         -2.1445725945        4.3948933945       -1.0992259340
 H         -4.6164151162        4.5335794049       -0.9170052105
 H         -5.9084324015        2.5226319067       -0.4314670996
 H         -6.5698064478        0.6449216725       -1.4364511696
 H         -6.5987938496       -1.0825048783       -1.0983321143
 H         -5.3234058193       -0.4045446663       -2.1124932670
 H         -5.3158243948        0.4089402832        2.1196387681
 H         -6.5713837523       -0.6307707053        1.4463406428
 H         -6.5900447086        1.0970878688        1.1118846742
 H         -5.9179353183       -2.5110825188        0.4432706915
 H         -4.6329339381       -4.5280657135        0.9229003029
 H         -2.1597922612       -4.4005482569        1.0941201903
 H         -1.0233276339       -2.2769594858        0.7035761316
 H         -0.5642435871       -1.3875945532       -1.6375474999
 H          1.8696826627       -1.3790174029       -1.6588143977
  58
        -88.06037635
 C          6.5122678667        1.5276314750        1.8506760631
 C          5.6734418770        0.7328213661        0.9007307711
 N          6.3249540438        0.0125268324       -0.0043296198
 C          5.6764477861       -0.7165968070       -0.9044530745
 C          6.5182120335       -1.5027064217       -1.8589367808
 C          4.2849083257       -0.7582504576       -0.9465039557
 C          3.7243133538       -1.6643366882       -1.8546240889
 N          3.3454569477       -2.4571877097       -2.6023380616
 C          3.5044994131       -0.0024122849        0.0036631526
 C          2.0868721358       -0.0038052979        0.0011776512
 C          1.3344969507        0.2049197688        1.1919662392
 C         -0.0301089612        0.1848237832        1.1907995831
 C         -0.7427623967       -0.0046823160       -0.0064602042
 N         -2.1530368181       -0.0039683632       -0.0084291383
 C         -2.8258976105        0.9756379242       -0.7086738182
 C         -2.0990197527        1.9938281156       -1.3479882176
 C         -2.7380244515        2.9623423677       -2.0861866895
 C         -4.1214656074        2.9516701335       -2.1890155355
 C         -4.8463872311        1.9866885284       -1.5138931343
 C         -4.2299697691        0.9969798665       -0.7607839940
 C         -5.0757178219        0.0095613837        0.0109795238
 C         -5.9763457267       -0.7597668209       -0.9751540811
 C         -5.9368390013        0.7953456613        1.0194104202
 C         -4.2293353715       -0.9922120489        0.7631166628
 C         -4.8444411734       -1.9801453852        1.5195952694
 C         -4.1191425720       -2.9559877549        2.1785537432
 C         -2.7373167145       -2.9786682343        2.0567201550
 C         -2.0995370512       -2.0106429097        1.3168999735
 C         -2.8259933340       -0.9822855009        0.6934864564
 C         -0.0238116559       -0.1952396162       -1.1996890131
 C          1.3408177204       -0.2138505851       -1.1935105884
 C          4.2817293341        0.7577111965        0.9528200537
 C          3.7182064232        1.6501521641        1.8726399088
 N          3.3377132042        2.4310500981        2.6320105264
 H          6.2990648337        1.2416565124        2.8797982460
 H          6.2938348994        2.5903634715        1.7526652179
 H          7.5627932260        1.3532430827        1.6362432386
 H          7.5680409979       -1.3215345628       -1.6470875938
 H          6.3073629485       -2.5672073289       -1.7642121493
 H          6.3002156595       -1.2144836287       -2.8864444511
 H          1.8539733693        0.3498453731        2.1237968069
 H         -0.5791662049        0.3413501647        2.1081521365
 H         -1.0269094327        2.0203852096       -1.2449731942
 H         -2.1593072021        3.7312507210       -2.5737912849
 H         -4.6325806885        3.7026292220       -2.7707367195
 H         -5.9234255322        2.0141057758       -1.5747532193
 H         -6.6116633346       -0.0773140353       -1.5320649700
 H         -6.6140889310       -1.4639313328       -0.4488998807
 H         -5.3630476099       -1.3143097229       -1.6828990364
 H         -5.2957191775        1.3383604417        1.7113044557
 H         -6.5699259731        0.1241247171        1.5924368751
 H         -6.5742394931        1.5113956068        0.5088884166
 H         -5.9207039723       -1.9971209409        1.5964202794
 H         -4.6291339819       -3.7060643367        2.7624570565
 H         -2.1591961027       -3.7563201169        2.5309508973
 H         -1.0290973889       -2.0452266414        1.1997292185
 H         -0.5676856793       -0.3535503682       -2.1197956492
 H          1.8654549649       -0.3589414230       -2.1224719894
  58
        -88.06019750
 C          6.5545291617        1.2613813050       -1.9957590655
 C          5.6858743279        0.5905586661       -0.9797713183
 N          6.3225730362       -0.0425797037        0.0016106346
 C          5.6634538248       -0.6413897281        0.9838410763
 C          6.4900263840       -1.3281991814        2.0246550789
 C          4.2709537851       -0.6422298403        1.0356262590
 C          3.6913056525       -1.4129680529        2.0497650205
 N          3.2921377236       -2.0931593750        2.8921395348
 C          3.5067322577        0.0098333046       -0.0004422243
 C          2.0882661884        0.0215885165       -0.0068282063
 C          1.3439939816        0.0658401477       -1.2191143038
 C         -0.0211263796        0.0455070456       -1.2225622048
 C         -0.7393349181        0.0224223420       -0.0147206225
 N         -2.1504220353        0.0130397936       -0.0163210686
 C         -2.8298413963        1.0833377423        0.5263471122
 C         -2.1096871488        2.1994664184        0.9839458757
 C         -2.7541655690        3.2681497890        1.5616656977
 C         -4.1363352732        3.2583357930        1.6814882156
 C         -4.8552197630        2.1868915497        1.1836993231
 C         -4.2333048157        1.0953802710        0.5934221143
 C         -5.0723625426       -0.0201635764        0.0125547144
 C         -5.9788263562        0.5730634113       -1.0838520976
 C         -5.9275720201       -0.6391681111        1.1355485179
 C         -4.2194983883       -1.1120788791       -0.5927098206
 C         -4.8285235765       -2.2150570059       -1.1749493137
 C         -4.0962337567       -3.2679641344       -1.6923835566
 C         -2.7122325008       -3.2476622866       -1.5996805190
 C         -2.0804083504       -2.1679884589       -1.0285819597
 C         -2.8155841554       -1.0697658655       -0.5520104933
 C         -0.0281023105        0.0044063357        1.1974281106
 C          1.3367232552       -0.0166735056        1.2012413033
 C          4.2963322973        0.6440187252       -1.0290175984
 C          3.7284080518        1.4468626852       -2.0268771409
 N          3.3246007296        2.1470694970       -2.8498149926
 H          6.8534117112        2.2442156371       -1.6281014215
 H          6.0317818527        1.3928538565       -2.9396357152
 H          7.4562949298        0.6717369265       -2.1459371818
 H          7.5423398423       -1.2267689812        1.7748295596
 H          6.3068539256       -0.8899744890        3.0052184238
 H          6.2293555962       -2.3843282834        2.0825056185
 H          1.8691692576        0.0796369272       -2.1589828916
 H         -0.5651713092        0.0719755727       -2.1557107963
 H         -1.0388522769        2.2193733457        0.8663913932
 H         -2.1811455891        4.1129421971        1.9107185069
 H         -4.6515385344        4.0883630312        2.1388935659
 H         -5.9316967295        2.2097795401        1.2558446493
 H         -6.6134689989       -0.1942419753       -1.5172411158
 H         -5.3694591975        1.0041034634       -1.8758931588
 H         -6.6170502275        1.3530361184       -0.6792023572
 H         -6.5576560330       -1.4346077534        0.7487813721
 H         -6.5674774926        0.1105410863        1.5916390642
 H         -5.2826538930       -1.0561771266        1.9067624591
 H         -5.9054360647       -2.2622512053       -1.2242899749
 H         -4.6018392571       -4.1072132836       -2.1434927657
 H         -2.1272800365       -4.0776819058       -1.9642455576
 H         -1.0075448737       -2.1660802680       -0.9314195986
 H         -0.5776235821       -0.0192214806        2.1274134083
 H          1.8571126720       -0.0278508925        2.1437740926
  58
        -88.05898729
 C          6.4744541278        2.2996659515        0.9036664748
 C          5.6460031147        1.1246596637        0.4908866169
 N          6.3065505385        0.0298312446        0.1352022228
 C          5.6674262612       -1.0674696846       -0.2571656666
 C          6.5258575281       -2.2354694746       -0.6257541879
 C          4.2774715419       -1.1187879891       -0.3223655303
 C          3.6981664327       -2.3589474854       -0.6171880184
 N          3.2837478212       -3.4156295076       -0.8254661347
 C          3.4896346547        0.0349120595        0.0418016272
 C          2.0742188424        0.0325705036       -0.0213673452
 C          1.2779134835        0.8372213669        0.8428543297
 C         -0.0848820203        0.8042804488        0.7951809042
 C         -0.7545323411       -0.0465703321       -0.1041410371
 N         -2.1609731603       -0.0684676471       -0.1101949978
 C         -2.8281542283        1.0910297237       -0.4581963278
 C         -2.1210160488        2.1254124768       -1.0881206455
 C         -2.7663745928        3.2727414656       -1.4896055674
 C         -4.1323387433        3.4005318408       -1.2878916160
 C         -4.8388699375        2.3771139167       -0.6774979972
 C         -4.2140474901        1.2157616715       -0.2520088448
 C         -4.9363413358        0.1286262857        0.5110897227
 C         -6.4349853926        0.0943162478        0.2034158655
 C         -4.7504867261        0.4413653069        2.0161365534
 C         -4.2594210084       -1.2050613748        0.2720658619
 C         -4.9377133954       -2.4091835708        0.3647304456
 C         -4.2702019516       -3.6235369670        0.3491826460
 C         -2.8850849393       -3.6452695849        0.3044374851
 C         -2.1840452166       -2.4652350244        0.1947063239
 C         -2.8586646631       -1.2390552705        0.1110526583
 C          0.0097014346       -0.8130433216       -1.0024094247
 C          1.3729339550       -0.7723686957       -0.9642411557
 C          4.2538470719        1.1806703416        0.4706633525
 C          3.6773713563        2.4213926114        0.7636564944
 N          3.2729935509        3.4824511517        0.9680337580
 H          6.2749182473        3.1518924017        0.2550109751
 H          7.5270829268        2.0374859518        0.8437841603
 H          6.2317715663        2.5979963705        1.9228587591
 H          6.6370631642       -2.2822439902       -1.7107718598
 H          7.5119640110       -2.1141852239       -0.1830436726
 H          6.0778253331       -3.1699848403       -0.2928894735
 H          1.7614172184        1.4472319076        1.5867068958
 H         -0.6689565994        1.3988829647        1.4829804922
 H         -1.0652647075        2.0070885788       -1.2722162050
 H         -2.2072135238        4.0599959416       -1.9706472857
 H         -4.6495616981        4.2917071987       -1.6074725744
 H         -5.8993356213        2.5046483676       -0.5340348945
 H         -6.6086112315       -0.1276861574       -0.8468518557
 H         -6.8964647675        1.0468906872        0.4449539771
 H         -6.9330461779       -0.6544847165        0.8121286980
 H         -3.6944027307        0.4743671832        2.2751331209
 H         -5.2287745927       -0.3270548633        2.6189298663
 H         -5.1946073772        1.4056093842        2.2536183941
 H         -6.0105954350       -2.4189757195        0.4631767073
 H         -4.8294255781       -4.5440192345        0.4105513147
 H         -2.3495238244       -4.5803524155        0.3550366158
 H         -1.1073590256       -2.4853043337        0.1779731665
 H         -0.4954433272       -1.3877817537       -1.7652859547
 H          1.9322386364       -1.3205488695       -1.7038606462
  58
        -88.05810231
 C          6.6135332176        1.0422289121       -1.9365703737
 C          5.7117338119        0.4936216800       -0.8767090834
 N          6.3023131473       -0.0531366110        0.1790993391
 C          5.5949369233       -0.5881719015        1.1670916556
 C          6.3718299815       -1.1590803631        2.3109639652
 C          4.2023920441       -0.6055880508        1.1438475961
 C          3.5743035599       -1.0887222983        2.2981019623
 N          3.1418899258       -1.4801686787        3.2936065134
 C          3.4859691039       -0.0209955290        0.0357815060
 C          2.0700136495        0.0083936924       -0.0247344106
 C          1.3688253970        1.0351635519       -0.7188335567
 C          0.0045703374        1.0855624619       -0.7394670367
 C         -0.7577001473        0.0950307965       -0.0961781509
 N         -2.1665713183        0.1058873568       -0.1080600401
 C         -2.8772836553        1.1359578891        0.4713103277
 C         -2.2119116938        2.2778462664        0.9402291981
 C         -2.9198392068        3.3509207039        1.4320834040
 C         -4.3041654711        3.2985029678        1.4817345434
 C         -4.9614311117        2.1393573900        1.1030633442
 C         -4.2762877208        1.0384494663        0.6137949662
 C         -4.9512479741       -0.3012765426        0.4015984738
 C         -6.4369427365       -0.1599000277        0.0569880307
 C         -4.8232192209       -1.0640922913        1.7428884968
 C         -4.1995699275       -1.1079745177       -0.6338465558
 C         -4.7990979021       -2.1138980973       -1.3756840102
 C         -4.0751281052       -2.8986584207       -2.2578653095
 C         -2.7153266402       -2.6814718098       -2.4199823903
 C         -2.0929050813       -1.6886227930       -1.6990109550
 C         -2.8172835142       -0.9028928379       -0.7904252375
 C         -0.0884376189       -0.9642159921        0.5431216641
 C          1.2743195223       -0.9937081330        0.5994816408
 C          4.3247164187        0.5386504801       -0.9968150949
 C          3.8276523756        1.0202566488       -2.2137390897
 N          3.5045520526        1.4079553349       -3.2514164222
 H          6.4469188526        0.5261501454       -2.8814127180
 H          7.6481104829        0.9128246839       -1.6317847297
 H          6.4122511730        2.1001458347       -2.0997559063
 H          6.1607973347       -2.2221733662        2.4217922404
 H          7.4340110569       -1.0185807609        2.1309280115
 H          6.0926529446       -0.6692841160        3.2430760116
 H          1.9271051212        1.8085466054       -1.2182603278
 H         -0.5017997322        1.8673672895       -1.2870243543
 H         -1.1354859666        2.3097413422        0.9214043968
 H         -2.3925756505        4.2255230818        1.7800978121
 H         -4.8696039279        4.1408765826        1.8486031976
 H         -6.0329542253        2.1049570803        1.2094862982
 H         -6.9056633432       -1.1353244850       -0.0309752990
 H         -6.5649923052        0.3796930727       -0.8788145792
 H         -6.9656845641        0.3666018607        0.8457503653
 H         -3.7773661216       -1.1810834744        2.0195441876
 H         -5.2701129562       -2.0516856924        1.6540332276
 H         -5.3289944486       -0.5162745694        2.5347285732
 H         -5.8541503782       -2.3062933372       -1.2723355963
 H         -4.5740831953       -3.6725218210       -2.8199586178
 H         -2.1445732995       -3.2770648664       -3.1152138612
 H         -1.0424917380       -1.4924774853       -1.8420163034
 H         -0.6712189509       -1.7429503296        1.0139396281
 H          1.7596784123       -1.8158220948        1.0973341345
