  58
  -87.7181077242000       0.339447552794838      !
 C          6.4963040844        2.2833322510        0.8131032388
 C          5.6662780134        1.1036675067        0.4169077462
 N          6.3252744782        0.0016267984        0.0784226417
 C          5.6826155520       -1.0957214751       -0.3046083896
 C          6.5303094705       -2.2801818396       -0.6449539238
 C          4.2924046452       -1.1447446978       -0.3742932469
 C          3.7247637899       -2.3876525295       -0.6770366222
 N          3.3288783910       -3.4485927975       -0.8981720200
 C          3.5066837431        0.0094063466       -0.0116469043
 C          2.0901869432        0.0084511180       -0.0394157527
 C          1.3251460338        0.8207012746        0.8457882521
 C         -0.0383448058        0.8132729799        0.8264486289
 C         -0.7404673689       -0.0125329438       -0.0715863644
 N         -2.1483365348       -0.0230695393       -0.0683119954
 C         -2.8228119560        1.1519562957       -0.3325215714
 C         -2.1027249573        2.2839722716       -0.7505131993
 C         -2.7378831235        3.4826024008       -0.9759801018
 C         -4.1114973583        3.5787043276       -0.8062458079
 C         -4.8338121016        2.4531204295       -0.4541552264
 C         -4.2216787905        1.2282705225       -0.2273392847
 C         -5.0667535694        0.0169538938        0.0941882643
 C         -6.0579834291       -0.2069954715       -1.0642113120
 C         -5.8304682617        0.2757223630        1.4080486059
 C         -4.2256814574       -1.2266333218        0.2749462902
 C         -4.8465726626       -2.4377383746        0.5480729140
 C         -4.1258184048       -3.5933314229        0.7876854469
 C         -2.7397315223       -3.5421237779        0.7975232058
 C         -2.0961317004       -2.3553860795        0.5345776851
 C         -2.8214062681       -1.1914223951        0.2296131223
 C         -0.0076489140       -0.8170075045       -0.9629843576
 C          1.3567128364       -0.8047272612       -0.9505720094
 C          4.2749048380        1.1615053456        0.3936158070
 C          3.6958392617        2.4096410939        0.6493761739
 N          3.2908976319        3.4741152192        0.8348014842
 H          6.2734406303        2.5779796904        1.8380136294
 H          6.2784297308        3.1356237154        0.1708412412
 H          7.5488538449        2.0271887085        0.7322725996
 H          6.2570590597       -3.1345040429       -0.0270780237
 H          6.3840188724       -2.5663706289       -1.6859033706
 H          7.5756950649       -2.0335827065       -0.4826181417
 H          1.8342039975        1.4133818073        1.5868959577
 H         -0.5975120328        1.4072525376        1.5349712230
 H         -1.0389955994        2.2070090548       -0.9039242973
 H         -2.1633409886        4.3402276346       -1.2891461027
 H         -4.6185846616        4.5166538611       -0.9694233889
 H         -5.9054357376        2.5368631650       -0.3582063584
 H         -6.6904304285        0.6641732632       -1.2069672177
 H         -6.6990401758       -1.0610764076       -0.8667070855
 H         -5.5133011812       -0.3914278688       -1.9882529543
 H         -5.1256793199        0.4321242382        2.2226222820
 H         -6.4638044948       -0.5699014011        1.6604900021
 H         -6.4571898010        1.1587250081        1.3221512306
 H         -5.9240673791       -2.4856869128        0.5827425937
 H         -4.6409084863       -4.5195436969        0.9885787252
 H         -2.1604140742       -4.4247581001        1.0191399281
 H         -1.0204202301       -2.3157337427        0.5720138832
 H         -0.5407492405       -1.4105778221       -1.6917473009
 H          1.8916605370       -1.3829594447       -1.6849793586
  58
  -87.7179824611000       0.297307419256276      !
 C          6.5151839014        2.2788717605        0.7483572737
 C          5.6762373533        1.0997422875        0.3697248853
 N          6.3276935073        0.0050104603       -0.0054097247
 C          5.6769357570       -1.0911703058       -0.3775580235
 C          6.5169920577       -2.2669122686       -0.7643785039
 C          4.2853337953       -1.1465872616       -0.3955638652
 C          3.7135651447       -2.3909999252       -0.6841679371
 N          3.3169489512       -3.4538268055       -0.8950080418
 C          3.5073964401        0.0020428057        0.0012130253
 C          2.0906309592        0.0012648089        0.0020135462
 C          1.3408975584        0.8105506427        0.9031862248
 C         -0.0232778246        0.8136076977        0.8990603330
 C         -0.7405113124        0.0010768291        0.0019287044
 N         -2.1487775160       -0.0001864142        0.0020338609
 C         -2.8240400257        1.1692094672       -0.2847024563
 C         -2.1004108132        2.3180761982       -0.6464517280
 C         -2.7418544369        3.5080458467       -0.8992986211
 C         -4.1250208126        3.5778472885       -0.8189040304
 C         -4.8470450038        2.4365479894       -0.5212825708
 C         -4.2280741270        1.2216670541       -0.2611093143
 C         -5.0723972432       -0.0063010561       -0.0062713949
 C         -5.9420181501       -0.2629515502       -1.2529021670
 C         -5.9650434098        0.2448577186        1.2248552051
 C         -4.2245006906       -1.2292019747        0.2608178849
 C         -4.8398562639       -2.4455003487        0.5226786727
 C         -4.1147402461       -3.5826401667        0.8284754096
 C         -2.7321791837       -3.5072794496        0.9140713806
 C         -2.0942580994       -2.3160053360        0.6586261782
 C         -2.8208300083       -1.1712572927        0.2898955198
 C         -0.0230317170       -0.8117117240       -0.8948308313
 C          1.3411043700       -0.8084693096       -0.8989056751
 C          4.2846283587        1.1519982948        0.3950627822
 C          3.7125245650        2.3951455351        0.6883964583
 N          3.3145347860        3.4563635977        0.9041364044
 H          6.3052512927        3.1212080907        0.0898108670
 H          7.5658143730        2.0133207790        0.6714038293
 H          6.2933632425        2.5943913116        1.7671679057
 H          7.5667345986       -2.0151598718       -0.6434800556
 H          6.2751636023       -3.1292426036       -0.1444434457
 H          6.3288925191       -2.5436376275       -1.8012121738
 H          1.8624487512        1.3927861518        1.6438329142
 H         -0.5695614063        1.4052773200        1.6194393585
 H         -1.0283004168        2.2622900192       -0.7359680535
 H         -2.1640937610        4.3787895761       -1.1671612827
 H         -4.6380843834        4.5076549439       -1.0084218416
 H         -5.9241647412        2.4994150781       -0.4966009175
 H         -6.5786914470       -1.1308416766       -1.1077797739
 H         -5.3065433967       -0.4431711555       -2.1179567446
 H         -6.5762937885        0.5927295186       -1.4657284664
 H         -5.3456158130        0.4264366641        2.1013489050
 H         -6.5992890943       -0.6137628321        1.4251023037
 H         -6.6034873157        1.1098463803        1.0701046594
 H         -5.9164041369       -2.5129566818        0.4922098898
 H         -4.6249627750       -4.5138615317        1.0190602016
 H         -2.1520492404       -4.3750068179        1.1868065589
 H         -1.0227036559       -2.2559953823        0.7515332587
 H         -0.5692552546       -1.4046519374       -1.6143037576
 H          1.8627984409       -1.3914574824       -1.6389684642
  58
  -87.7174266634000       0.165112065153672      !
 C          6.5510324582        1.2725595162       -2.0001388913
 C          5.6841797902        0.5981876615       -0.9849618678
 N          6.3226048414       -0.0370987884       -0.0060928477
 C          5.6651847453       -0.6391835653        0.9752740355
 C          6.4936012756       -1.3281398471        2.0131991305
 C          4.2727492161       -0.6413743787        1.0287274631
 C          3.6949870611       -1.4154055688        2.0414334356
 N          3.2974201559       -2.0982605670        2.8824088810
 C          3.5067193838        0.0128767615       -0.0046226864
 C          2.0882370325        0.0234189177       -0.0092743001
 C          1.3424699418        0.0703637545       -1.2205399751
 C         -0.0226354955        0.0488559183       -1.2224059446
 C         -0.7393711838        0.0218213816       -0.0137716809
 N         -2.1504505695        0.0112190861       -0.0137048772
 C         -2.8301417699        1.0794284292        0.5327251668
 C         -2.1104027785        2.1949168271        0.9925331795
 C         -2.7551095405        3.2614453668        1.5739683337
 C         -4.1371251929        3.2501022690        1.6954216676
 C         -4.8556813644        2.1794099176        1.1955453080
 C         -4.2335334185        1.0900685778        0.6015169962
 C         -5.0723244625       -0.0245986215        0.0185851819
 C         -5.9806181172        0.5708593982       -1.0750944720
 C         -5.9256479258       -0.6474356579        1.1408944263
 C         -4.2192452319       -1.1141023420       -0.5907086065
 C         -4.8280164989       -2.2160005282       -1.1752538890
 C         -4.0954395904       -3.2668427592       -1.6964656270
 C         -2.7113459463       -3.2455956388       -1.6053676644
 C         -2.0797689956       -2.1669511890       -1.0320548337
 C         -2.8153201765       -1.0706836344       -0.5515773622
 C         -0.0266664952        0.0010837750        1.1974685629
 C          1.3381803770       -0.0188224214        1.1995860664
 C          4.2945338745        0.6505776374       -1.0323933766
 C          3.7247167335        1.4556740209       -2.0273548222
 N          3.3193153369        2.1577942651       -2.8478750906
 H          6.8495072819        2.2546363813       -1.6301334092
 H          6.0270373341        1.4061777951       -2.9430217982
 H          7.4531262855        0.6841135732       -2.1530230276
 H          7.5455255703       -1.2251090186        1.7623916012
 H          6.3112291541       -0.8927767298        2.9951853164
 H          6.2339130783       -2.3846500333        2.0684521047
 H          1.8665027733        0.0872048419       -2.1609964352
 H         -0.5678245700        0.0774225847       -2.1548246170
 H         -1.0397276132        2.2160764673        0.8737492365
 H         -2.1824006524        4.1057699571        1.9246597784
 H         -4.6524953268        4.0784192153        2.1557301865
 H         -5.9320901959        2.2011651956        1.2690449870
 H         -6.6151179606       -0.1957996614       -1.5098342981
 H         -5.3725763721        1.0046078874       -1.8666754139
 H         -6.6190288917        1.3491606036       -0.6675316391
 H         -6.5555087790       -1.4423533150        0.7526932708
 H         -6.5656523006        0.1004590180        1.5998164620
 H         -5.2794429255       -1.0660076432        1.9101820470
 H         -5.9049463384       -2.2639929081       -1.2234322315
 H         -4.6008615597       -4.1052845268       -2.1492786241
 H         -2.1261150763       -4.0741001716       -1.9729199586
 H         -1.0067915319       -2.1643798602       -0.9361749306
 H         -0.5750486813       -0.0255822074        2.1280439005
 H          1.8597120314       -0.0321443813        2.1414594108
  58
  -87.7171751470000       0.126528941565970      !
 C          6.4662397820        2.3581685426        0.6422704033
 C          5.6531494963        1.1479200540        0.3079844665
 N          6.3225640194        0.0643068258       -0.0580553230
 C          5.6965332391       -1.0626416493       -0.3909890496
 C          6.5832811793       -2.2069569788       -0.7646208754
 C          4.3087371724       -1.1547344822       -0.3784206477
 C          3.7358778055       -2.4106616301       -0.6161522152
 N          3.3158621006       -3.4722946249       -0.7811828958
 C          3.5105622833       -0.0160853087        0.0083192768
 C          2.0932547937       -0.0442076900        0.0309040516
 C          1.3481792289        0.7497450203        0.9483371853
 C         -0.0160635835        0.7524268540        0.9500634747
 C         -0.7356861296       -0.0447738959        0.0417878787
 N         -2.1438482652       -0.0236773536        0.0277069985
 C         -2.7955660712        1.1605304207       -0.2542949351
 C         -2.0488947566        2.3023321576       -0.5907218746
 C         -2.6677120890        3.5054526651       -0.8375243507
 C         -4.0504870684        3.5964288516       -0.7761447920
 C         -4.7945737174        2.4631136696       -0.5035347511
 C         -4.1987167084        1.2352370358       -0.2506253978
 C         -5.0664160707        0.0179907687       -0.0242265506
 C         -5.9307091369       -0.2011928137       -1.2813445670
 C         -5.9638409210        0.2628270789        1.2047738167
 C         -4.2424024613       -1.2235714671        0.2310075448
 C         -4.8804442484       -2.4348366253        0.4596783042
 C         -4.1778333849       -3.5878236045        0.7589515837
 C         -2.7963322436       -3.5342749277        0.8739566350
 C         -2.1361248076       -2.3485905564        0.6509486978
 C         -2.8387968799       -1.1876161795        0.2867030492
 C         -0.0220292812       -0.8546570113       -0.8602957777
 C          1.3425094556       -0.8535564574       -0.8677424977
 C          4.2608994103        1.1632153258        0.3645270654
 C          3.6553203355        2.3935051998        0.6407345244
 N          3.2232365667        3.4452453318        0.8385560467
 H          6.2803324617        2.6698666800        1.6693295854
 H          6.1952177105        3.1890744934       -0.0079147195
 H          7.5210145950        2.1299530407        0.5187297892
 H          6.0079815261       -3.1034666786       -0.9761943944
 H          7.1694723183       -1.9373304178       -1.6424000491
 H          7.2814490022       -2.4052293218        0.0471702412
 H          1.8741172393        1.3223488867        1.6937528368
 H         -0.5601316551        1.3356440173        1.6789558599
 H         -0.9767341256        2.2319857182       -0.6652554864
 H         -2.0719658716        4.3700301587       -1.0851342111
 H         -4.5458155686        4.5365709757       -0.9611184834
 H         -5.8706490624        2.5427051702       -0.4936321009
 H         -6.5567714493        0.6644117332       -1.4764309435
 H         -6.5755644971       -1.0667552108       -1.1615425531
 H         -5.2918317968       -0.3652106907       -2.1470144324
 H         -5.3484069207        0.4092472848        2.0904353564
 H         -6.6205044949       -0.5844034840        1.3797256733
 H         -6.5791323044        1.1467177435        1.0643500022
 H         -5.9572030713       -2.4853078718        0.4092316562
 H         -4.7051988886       -4.5142716818        0.9237864368
 H         -2.2348427072       -4.4146966076        1.1447598708
 H         -1.0658076824       -2.3051041015        0.7657068434
 H         -0.5709450874       -1.4404708226       -1.5834812442
 H          1.8621142001       -1.4323780960       -1.6127167232
  58
  -87.7154338035000       2.004120411779655E-002 !
 C          6.5127237185        2.3034653757        0.6749950187
 C          5.6753219622        1.1145240119        0.3250071412
 N          6.3252471904        0.0239746048       -0.0580013174
 C          5.6770309483       -1.0869513843       -0.3986985453
 C          6.5345815824       -2.2555060530       -0.7660844231
 C          4.2874692454       -1.1534819659       -0.3819512949
 C          3.7008059789       -2.4022120517       -0.6228721521
 N          3.2713146509       -3.4609361502       -0.7832192962
 C          3.5095992228       -0.0021270084        0.0091800867
 C          2.0923073696       -0.0065495728        0.0148254458
 C          1.3437099628        0.8002358030        0.9184365762
 C         -0.0206869966        0.8028262391        0.9151392766
 C         -0.7378811573       -0.0058932325        0.0148998528
 N         -2.1461282064       -0.0035321917        0.0105385973
 C         -2.8174455718        1.1692796686       -0.2716184731
 C         -2.0900252677        2.3199111117       -0.6194189007
 C         -2.7280602263        3.5136981087       -0.8633426690
 C         -4.1113657622        3.5858010563       -0.7877513401
 C         -4.8369866549        2.4427500706       -0.5061128914
 C         -4.2215157749        1.2239475706       -0.2559661989
 C         -5.0693972327       -0.0056577930       -0.0216604747
 C         -5.9269266900       -0.2486030084       -1.2792241590
 C         -5.9745555639        0.2344972044        1.2022538439
 C         -4.2253956256       -1.2320255040        0.2416866569
 C         -4.8441220744       -2.4504663390        0.4849877472
 C         -4.1228914456       -3.5903998202        0.7893378575
 C         -2.7414936261       -3.5159883613        0.8928600998
 C         -2.1001176918       -2.3231378446        0.6539312542
 C         -2.8220559126       -1.1754470370        0.2853200441
 C         -0.0209853206       -0.8163560388       -0.8842937939
 C          1.3432108026       -0.8137185475       -0.8880975203
 C          4.2835106457        1.1563155550        0.3829340652
 C          3.7078509743        2.3944405258        0.6878846432
 N          3.3033294122        3.4537805857        0.9043268616
 H          6.2777541858        3.1392317157        0.0184997089
 H          7.5630865807        2.0483662268        0.5723094791
 H          6.3147112676        2.6225025872        1.6963979153
 H          6.8908928833       -2.7446515772        0.1397701525
 H          5.9839982330       -2.9818664020       -1.3555087669
 H          7.4028361930       -1.9076807449       -1.3189402956
 H          1.8662456855        1.3808846683        1.6597864068
 H         -0.5668198103        1.3917437026        1.6379332374
 H         -1.0176671309        2.2630666126       -0.7045774919
 H         -2.1473687941        4.3856468991       -1.1206267748
 H         -4.6217426256        4.5185836035       -0.9697405507
 H         -5.9140122221        2.5072823713       -0.4867752142
 H         -6.5714063279       -1.1130499837       -1.1464972207
 H         -5.2828573850       -0.4275433499       -2.1381547896
 H         -6.5524833539        0.6132834353       -1.4931340187
 H         -6.6199215422        1.0937330996        1.0442887006
 H         -5.3638216335        0.4195905375        2.0840236454
 H         -6.6021708430       -0.6306120356        1.3957934643
 H         -5.9203199056       -2.5171232064        0.4419346671
 H         -4.6355562909       -4.5228568892        0.9661462340
 H         -2.1650525169       -4.3858332677        1.1662133754
 H         -1.0297044201       -2.2641717302        0.7596505123
 H         -0.5675075588       -1.4066020507       -1.6057127872
 H          1.8649411259       -1.3945269435       -1.6299965101
  58
  -87.7152107413000       1.582747083495145E-002 !
 C          6.4722101237        2.3050298015        0.9060720548
 C          5.6448883875        1.1293702643        0.4928875123
 N          6.3064778257        0.0351389638        0.1373023174
 C          5.6684103776       -1.0626577050       -0.2553987615
 C          6.5279496249       -2.2298919154       -0.6238303395
 C          4.2785212157       -1.1151419025       -0.3210664031
 C          3.7003610639       -2.3557573586       -0.6162179138
 N          3.2869037162       -3.4127657902       -0.8247500515
 C          3.4895898579        0.0378526400        0.0429657097
 C          2.0741976011        0.0343234606       -0.0206741182
 C          1.2769261674        0.8382066450        0.8433712664
 C         -0.0858251267        0.8041208162        0.7952411136
 C         -0.7544581088       -0.0471956442       -0.1043970232
 N         -2.1608778552       -0.0702793003       -0.1109210102
 C         -2.8289216188        1.0886929406       -0.4590165874
 C         -2.1224473923        2.1237416095       -1.0885919612
 C         -2.7686405931        3.2705697895       -1.4901652101
 C         -4.1347790873        3.3971850160       -1.2888913726
 C         -4.8406490915        2.3731038386       -0.6788452884
 C         -4.2149881217        1.2122324276       -0.2532761811
 C         -4.9366177495        0.1244036660        0.5094625919
 C         -6.4351299635        0.0888627395        0.2012867054
 C         -4.7515274378        0.4371334382        2.0146055287
 C         -4.2584925886       -1.2086858376        0.2705170896
 C         -4.9357991907       -2.4133902870        0.3628236798
 C         -4.2672579116       -3.6271781580        0.3473642248
 C         -2.8821082535       -3.6477368134        0.3030772037
 C         -2.1820283218       -2.4670989100        0.1937089502
 C         -2.8576546088       -1.2414797435        0.1099658839
 C          0.0107208487       -0.8129242816       -1.0024955816
 C          1.3739057911       -0.7711033306       -0.9638695886
 C          4.2526923652        1.1842081919        0.4722075427
 C          3.6750723008        2.4244111599        0.7651454917
 N          3.2697311712        3.4851054854        0.9695050225
 H          6.2721706333        3.1571590789        0.2574440072
 H          7.5250796798        2.0437449055        0.8465108825
 H          6.2289370949        2.6030428830        1.9252164085
 H          6.6395553432       -2.2764528894       -1.7088161166
 H          7.5138061829       -2.1078242757       -0.1807786451
 H          6.0805957257       -3.1648217878       -0.2912174159
 H          1.7596675913        1.4485429943        1.5874516517
 H         -0.6706299413        1.3981543071        1.4829118775
 H         -1.0665354258        2.0063290981       -1.2723495070
 H         -2.2099843214        4.0583489595       -1.9709343804
 H         -4.6526477761        4.2879587693       -1.6085462399
 H         -5.9012696667        2.4997274021       -0.5357207511
 H         -6.6082192573       -0.1331702871       -0.8490631018
 H         -6.8974934280        1.0410207119        0.4427761621
 H         -6.9327608689       -0.6604254461        0.8097515272
 H         -3.6955578191        0.4709980576        2.2739568409
 H         -5.2293669059       -0.3317566053        2.6171552471
 H         -5.1965406868        1.4009761422        2.2520457700
 H         -6.0087052466       -2.4240987876        0.4609121432
 H         -4.8257247983       -4.5481388376        0.4084456939
 H         -2.3457749463       -4.5823728797        0.3537515266
 H         -1.1053200729       -2.4862576582        0.1773315659
 H         -0.4936850403       -1.3880047016       -1.7656032446
 H          1.9339187612       -1.3187296864       -1.7033633805
  58
  -87.7151158196000       1.431490693735192E-002 !
 C          6.5108692582        1.5294548750        1.8540878809
 C          5.6727654055        0.7348029541        0.9033731683
 N          6.3249491781        0.0152930399       -0.0018276050
 C          5.6771166652       -0.7136167739       -0.9026091546
 C          6.5196007439       -1.4988313280       -1.8571945103
 C          4.2856122347       -0.7558552569       -0.9452319603
 C          3.7257715110       -1.6616847877       -1.8540731901
 N          3.3475565773       -2.4542882950       -2.6023740975
 C          3.5044984163       -0.0008829433        0.0050442923
 C          2.0868729735       -0.0028940451        0.0019987900
 C          1.3339372058        0.2048446835        1.1926055194
 C         -0.0306592239        0.1841530542        1.1908894542
 C         -0.7427576740       -0.0050033131       -0.0067557959
 N         -2.1530313870       -0.0049045220       -0.0092806675
 C         -2.8260442683        0.9747941577       -0.7092498771
 C         -2.0993596319        1.9936547326       -1.3477153462
 C         -2.7384966132        2.9622971309       -2.0856311063
 C         -4.1218923240        2.9510771553       -2.1890115663
 C         -4.8466581059        1.9854062361       -1.5147079608
 C         -4.2301049700        0.9955513300       -0.7619021455
 C         -5.0757254511        0.0073373785        0.0089825050
 C         -5.9756280815       -0.7618396679       -0.9779308261
 C         -5.9375875846        0.7921883490        1.0175072228
 C         -4.2292017088       -0.9944812706        0.7609003773
 C         -4.8441737279       -1.9831008516        1.5165908208
 C         -4.1187084154       -2.9589899037        2.1752965974
 C         -2.7368248495       -2.9809992868        2.0539956271
 C         -2.0991768369       -2.0122870030        1.3149615602
 C         -2.8258368030       -0.9839030577        0.6918292636
 C         -0.0232533255       -0.1945875379       -1.1998059026
 C          1.3413815150       -0.2126056106       -1.1930994268
 C          4.2810216863        0.7590558784        0.9549271685
 C          3.7167460751        1.6507424828        1.8750171378
 N          3.3356121454        2.4310546554        2.6346685373
 H          6.2973855622        1.2428185672        2.8829678634
 H          6.2920103547        2.5921452781        1.7565775176
 H          7.5615552148        1.3556439786        1.6399732598
 H          7.5692668000       -1.3173177467       -1.6448312235
 H          6.3091797384       -2.5634764104       -1.7631406817
 H          6.3018834883       -1.2101365033       -2.8846288414
 H          1.8529828064        0.3494827170        2.1247207972
 H         -0.5801464644        0.3399329384        2.1081116042
 H         -1.0273017211        2.0206234189       -1.2442627557
 H         -2.1599233870        3.7317274178       -2.5725828569
 H         -4.6331062873        3.7021339255       -2.7705197144
 H         -5.9236842132        2.0123864477       -1.5759777729
 H         -6.6110243813       -0.0793571560       -1.5347154962
 H         -6.6132707951       -1.4665732633       -0.4523170256
 H         -5.3618086073       -1.3157236420       -1.6857397892
 H         -5.2969780465        1.3351011008        1.7099537552
 H         -6.5706069086        0.1203745215        1.5899132887
 H         -6.5750997447        1.5082414877        0.5071291512
 H         -5.9204592066       -2.0005891191        1.5929818731
 H         -4.6286020122       -3.7096115660        2.7585845503
 H         -2.1585513199       -3.7586602119        2.5280250564
 H         -1.0286760466       -2.0463382769        1.1981940142
 H         -0.5666952969       -0.3526278504       -2.1202142645
 H          1.8664483377       -0.3569542148       -2.1219337426
  58
  -87.7151140859000       1.428866899320389E-002 !
 C          6.5259169599        2.2908227574        0.7078741415
 C          5.6727986932        1.1179550370        0.3438728396
 N          6.3234510881        0.0116900465        0.0020083285
 C          5.6814722940       -1.1003419160       -0.3407705236
 C          6.5465634145       -2.2746534568       -0.6702723172
 C          4.2912129587       -1.1588543721       -0.3666251448
 C          3.6976199584       -2.4023367496       -0.6156250956
 N          3.2606835748       -3.4557563882       -0.7917976568
 C          3.5132626299        0.0014787089       -0.0055327054
 C          2.0948952699       -0.0037883034       -0.0029430760
 C          1.3471773200        0.7923031800        0.9096334738
 C         -0.0174178247        0.7938582782        0.9071657401
 C         -0.7336771958       -0.0054238637       -0.0017783789
 N         -2.1422706977       -0.0043519709       -0.0016817597
 C         -2.8145970922        1.1718409514       -0.2668122156
 C         -2.0889335986        2.3239499037       -0.6137534349
 C         -2.7274988611        3.5206358899       -0.8408185832
 C         -4.1095971250        3.5948617993       -0.7474884797
 C         -4.8340918543        2.4511586540       -0.4656901861
 C         -4.2181866142        1.2290474699       -0.2337872668
 C         -5.0655174294       -0.0002184297        0.0041445861
 C         -5.9480039065       -0.2286547554       -1.2386482485
 C         -5.9447714884        0.2291542661        1.2493205499
 C         -4.2206898259       -1.2318924426        0.2387078091
 C         -4.8391050881       -2.4522015414        0.4736565882
 C         -4.1167693721       -3.5979172654        0.7527864368
 C         -2.7341410209       -3.5277241316        0.8398752409
 C         -2.0931291884       -2.3328106765        0.6098635837
 C         -2.8168565459       -1.1786715480        0.2658226404
 C         -0.0170547498       -0.8055980790       -0.9096285655
 C          1.3476353814       -0.8036022873       -0.9125645636
 C          4.2816944936        1.1681065000        0.3580016827
 C          3.6765444446        2.4080344578        0.5949493094
 N          3.2273410047        3.4587337349        0.7551281011
 H          7.3786117953        2.3426119416        0.0344108346
 H          6.9090531395        2.1580600196        1.7202541326
 H          5.9615349412        3.2186439799        0.6664476304
 H          7.3446141186       -1.9600302290       -1.3390789844
 H          7.0097364975       -2.6504672426        0.2414880557
 H          5.9732758134       -3.0746520327       -1.1291575204
 H          1.8698542875        1.3653722612        1.6570816966
 H         -0.5639419292        1.3755981181        1.6354638143
 H         -1.0178147635        2.2659704801       -0.7119999032
 H         -2.1481697380        4.3933726268       -1.0982809090
 H         -4.6200997617        4.5300781285       -0.9157508632
 H         -5.9104724260        2.5180343612       -0.4303808715
 H         -6.5704807191        0.6399615390       -1.4355852592
 H         -6.5980649073       -1.0875408294       -1.0977362791
 H         -5.3233305838       -0.4084134172       -2.1119383710
 H         -5.3158988810        0.4044077283        2.1203214697
 H         -6.5707153178       -0.6361877302        1.4470047484
 H         -6.5907793874        1.0917084611        1.1128244629
 H         -5.9158992725       -2.5158243194        0.4435612082
 H         -4.6292500143       -4.5318681687        0.9227221445
 H         -2.1561898765       -4.4024251786        1.0936746897
 H         -1.0214476984       -2.2778780192        0.7033346630
 H         -0.5633384452       -1.3877805391       -1.6377015160
 H          1.8705777825       -1.3772783276       -1.6592500205
  58
  -87.7144573946000       7.131770345940550E-003 !
 C          6.6108949207        1.0397703463       -1.9468727518
 C          5.7105179502        0.4949106811       -0.8838735636
 N          6.3025133366       -0.0467982773        0.1737430361
 C          5.5964839639       -0.5782220947        1.1646436129
 C          6.3748920321       -1.1435391245        2.3102616518
 C          4.2039351356       -0.5969685297        1.1427077723
 C          3.5772940001       -1.0757096079        2.2995763276
 N          3.1461061629       -1.4632706683        3.2971306391
 C          3.4860165695       -0.0177607600        0.0327834516
 C          2.0699827636        0.0101173978       -0.0266035874
 C          1.3672714423        1.0332847838       -0.7244719371
 C          0.0029545141        1.0823889467       -0.7441126823
 C         -0.7578687361        0.0939482064       -0.0959130622
 N         -2.1667589206        0.1035084442       -0.1065934517
 C         -2.8778741324        1.1354223858        0.4689898379
 C         -2.2131027951        2.2798963808        0.9324250159
 C         -2.9215485434        3.3544414419        1.4203063597
 C         -4.3057834034        3.3010132331        1.4714076277
 C         -4.9623535142        2.1396759031        1.0982859780
 C         -4.2766648818        1.0372885579        0.6131298084
 C         -4.9506224697       -0.3039300975        0.4072702399
 C         -6.4367454933       -0.1653441519        0.0633736013
 C         -4.8207337322       -1.0608805729        1.7517006202
 C         -4.1991420971       -1.1143907979       -0.6253761763
 C         -4.7984308918       -2.1240120185       -1.3623678862
 C         -4.0745430528       -2.9119033327       -2.2418214383
 C         -2.7150784265       -2.6942111999       -2.4060714344
 C         -2.0929028615       -1.6977335512       -1.6899098328
 C         -2.8171769100       -0.9087598843       -0.7840559052
 C         -0.0871026134       -0.9619587261        0.5473238327
 C          1.2757293470       -0.9900046255        0.6026025315
 C          4.3233557450        0.5381986197       -1.0029427318
 C          3.8247913201        1.0141486728       -2.2214771938
 N          3.5004319249        1.3971136336       -3.2605186549
 H          6.4439055224        0.5195024348       -2.8893485004
 H          7.6458550497        0.9125872500       -1.6424522327
 H          6.4085299975        2.0968003033       -2.1144087252
 H          6.1649010058       -2.2063338141        2.4258282325
 H          7.4367887739       -1.0028730868        2.1286849591
 H          6.0961024813       -0.6500020493        3.2405146230
 H          1.9244237324        1.8050148460       -1.2277002494
 H         -0.5045920801        1.8613934927       -1.2945641550
 H         -1.1367228263        2.3126619972        0.9125103909
 H         -2.3947548621        4.2309920771        1.7641051478
 H         -4.8716456419        4.1444503071        1.8351663307
 H         -6.0337513935        2.1047845975        1.2058043039
 H         -6.9046774226       -1.1415503436       -0.0199967009
 H         -6.5660992773        0.3701225141       -0.8746173255
 H         -6.9652586482        0.3640636447        0.8503420945
 H         -3.7745336060       -1.1757612578        2.0279283118
 H         -5.2668287914       -2.0492401191        1.6674711650
 H         -5.3262965130       -0.5101236639        2.5416352035
 H         -5.8532206053       -2.3168953531       -1.2572620831
 H         -4.5733065199       -3.6886078419       -2.8001535445
 H         -2.1444099708       -3.2922717719       -3.0992513021
 H         -1.0427905810       -1.5012741379       -1.8346841410
 H         -0.6687769729       -1.7391842115        1.0219882289
 H          1.7622567242       -1.8095493807        1.1035408802
