67
 energy: -106.987871282519 gnorm: 0.000065603357 xtb: 6.7.1 (edcfbbe)
C            8.78958705831066        3.59237454195963       -0.09352684793862
C            8.94974800933786        2.37776652606642       -0.74088912015803
C            7.93818919613316        1.43613607117446       -0.71758047692756
C            6.75234326028540        1.70224710709952       -0.03637611099972
C            5.65718991257056        0.74329933562232       -0.00151039267099
N            4.36369289015307        1.17150656308102        0.01056165493200
C            3.62766421060987        0.10104541239616       -0.01546274765410
C            2.18245703242181        0.02530068247945       -0.01057021345234
C            1.53885672387423       -1.21427075935210        0.06691706051059
C            0.15993188386051       -1.24375215862277        0.06915348228059
C           -0.55312977233135       -0.04647796663536       -0.00885899746945
C           -2.01724276915483       -0.01921797884737       -0.01078085786543
C           -2.71250827720204        0.85248897235792       -0.84788164954550
C           -4.09182129454480        0.87411474886012       -0.85656811041597
C           -4.81221893911648        0.03739798717234       -0.00663532527972
N           -6.21045127453375        0.06476195766829       -0.00441154450866
C           -7.04102665399407       -1.03786406473427       -0.07299710491051
C           -6.72047521280475       -2.38052316278867       -0.21330246960161
C           -7.75961499851481       -3.28868473708330       -0.28383647939661
C           -9.08965189223950       -2.87880157784139       -0.22735084025733
C           -9.41540882856520       -1.54191823538522       -0.11643283431674
C           -8.38815674715853       -0.61058265490974       -0.04346748036050
C           -8.36055698549780        0.82217329459647        0.05203050489407
C           -9.35138472860993        1.79157529843073        0.13323640714311
C           -8.97435159617682        3.11512403924934        0.24108106377937
C           -7.62930821959396        3.47447246810160        0.28629740571468
C           -6.62568604257959        2.52783565048449        0.20762095668452
C           -6.99811212272553        1.19831131182334        0.07063599835038
C           -4.12427531775762       -0.82743728603687        0.84173561552496
C           -2.74529787098965       -0.86118921510199        0.82875543046852
C            0.19819385384950        1.13197054917331       -0.07659206536520
N            1.51020981004592        1.17253183656965       -0.07635467120567
O            4.35471733242354       -1.03837797831973       -0.04005212370951
C            5.65330394151616       -0.64198401847321       -0.02043395976212
C            6.68612043846269       -1.65947228221911        0.02342072859524
C            6.45178939675258       -2.90590373235890       -0.55841627550077
C            7.42166653967043       -3.88876304425720       -0.51654798688164
C            8.63236013147902       -3.64564144309566        0.11089817526424
C            8.86481977338803       -2.41593387629986        0.70709459024294
C            7.90094895892504       -1.42745322118015        0.66974587817704
C            6.58693775228728        2.93520839747483        0.59084915571763
C            7.60346169908480        3.87085250215927        0.56582771313305
H            9.58496794442604        4.32300974228310       -0.11140019223284
H            9.86671412687447        2.16485235366978       -1.27103511862660
H            8.05927981143301        0.49786607422306       -1.23894664694910
H            2.11948590972594       -2.12183024346806        0.12122079194807
H           -0.36677106938087       -2.18671572811228        0.11009178385084
H           -2.16399553737235        1.49466318265901       -1.52077328302250
H           -4.62119316051735        1.52671422091854       -1.53432293846823
H           -5.69404187381429       -2.70855429312257       -0.27892975091197
H           -7.53491711978313       -4.33992369119779       -0.38889603274889
H           -9.87306248865073       -3.61996145708121       -0.28186145867678
H          -10.44597425160208       -1.22146139663401       -0.09095581746204
H          -10.39347594209822        1.51014364548598        0.11638849922699
H           -9.72874445460217        3.88531829790019        0.30188409200222
H           -7.36412483337186        4.51640774032476        0.38890356084965
H           -5.58720259266073        2.81706294219988        0.26450184284890
H           -4.67766330906134       -1.45757059506188        1.52167389579158
H           -2.22292935077178       -1.52440236614313        1.50257581809987
H           -0.29418730998047        2.09512243488465       -0.11418596605119
H            5.50782369170702       -3.09040527634745       -1.04951204299012
H            7.23326104589156       -4.84799194859500       -0.97603711031080
H            9.39075442309879       -4.41371136859962        0.14058640539332
H            9.80231818619038       -2.22839337007435        1.20934917622408
H            8.07615548870160       -0.47698526414527        1.15008473318739
H            5.65301910535414        3.14035858214788        1.09041359104844
H            7.47098829889803        4.82213992144709        1.06015403275416
