67
 energy: -106.991002524507 gnorm: 0.000060296300 xtb: 6.7.1 (edcfbbe)
C            8.97770784400763        3.28800862825917       -0.81594426673297
C            9.03138406581625        1.97551389223873       -1.25714028639665
C            7.96922626663782        1.12028012484031       -1.03250903490800
C            6.83883172690087        1.57285125012818       -0.35522426281451
C            5.69400015393191        0.70266021140775       -0.12308649686248
N            4.42416328827252        1.19124753318592       -0.19977025828163
C            3.63592023817109        0.16816840249195       -0.01329571887001
C            2.19061842213042        0.20779042529984       -0.02155087922682
C            1.52900094220544        1.41634284445837       -0.26018681349690
C            0.15070361333004        1.41917757870935       -0.27172427634931
C           -0.54313808639609        0.22793311958565       -0.04284841964810
C           -2.00689774417472        0.17439542434865       -0.03985243438788
C           -2.75568598528174        1.21348369714765        0.51153577371640
C           -4.13433498428204        1.16471707214996        0.52239817008216
C           -4.80091415245613        0.06784749833300       -0.01849491458074
N           -6.19893632699078        0.01362547352530       -0.00423030568869
C           -7.00952309243463       -0.27157702237123       -1.08631212633796
C           -6.66682194580995       -0.51227063375314       -2.40905072923009
C           -7.68977137927065       -0.74490423744089       -3.30842340130831
C           -9.02502044846934       -0.73102663720098       -2.91164617040929
C           -9.37333926521707       -0.46692655539017       -1.60222345753963
C           -8.36282039588310       -0.23016993926555       -0.67976353726335
C           -8.35942504488561        0.09003607094124        0.72031524578244
C           -9.36403959208474        0.24875040828503        1.66570102192372
C           -9.00753719169276        0.53934184075220        2.96728871753971
C           -7.66867514879712        0.65573250873646        3.33392522412845
C           -6.65151509909006        0.50220256477220        2.41134061611287
C           -7.00456396269254        0.23574409260772        1.09628120851367
C           -4.06094268760985       -0.97449226505959       -0.57187000324670
C           -2.68250007895226       -0.91844605804880       -0.58201387101312
C            0.22616512992722       -0.91569617648354        0.19251934910552
N            1.54010403228873       -0.93291294181968        0.20178337734578
O            4.30055215440488       -0.97891948805009        0.19202615694683
C            5.61532016405098       -0.65721577058050        0.13638088261823
C            6.59435198092320       -1.69657078542647        0.38948985532177
C            6.25957944800876       -3.02779769942227        0.13688568935660
C            7.17410251457727       -4.03397047555099        0.38018124553465
C            8.42822013628360       -3.72895310326815        0.88352751500906
C            8.75974473766808       -2.41076866376831        1.15522551342580
C            7.85183640965258       -1.39780448104819        0.91545036552253
C            6.78143466110243        2.89937887969634        0.06517553343854
C            7.84819175196185        3.74872536383644       -0.15979393963927
H            9.81189119373150        3.95152758832168       -0.99062801066414
H            9.90438487577352        1.61772786539263       -1.78335316733635
H            8.00622895193538        0.10227012614612       -1.39180793689660
H            2.10949017789447        2.30664832837018       -0.43706188220136
H           -0.39224838718719        2.33043079201763       -0.47795724975330
H           -2.25102549658745        2.06190572491717        0.94959588049346
H           -4.70476058663349        1.98206144539760        0.93755181283842
H           -5.63649102270429       -0.50646722234090       -2.73155359182768
H           -7.44825899134006       -0.93814896875473       -4.34326862302959
H           -9.79515759494031       -0.92058449800250       -3.64444728842979
H          -10.40861215013361       -0.43924022987916       -1.29743723024365
H          -10.40074597903795        0.14119061420448        1.38442850533915
H           -9.77316983535107        0.66928472221552        3.71759363247216
H           -7.41931602620155        0.86689172051809        4.36339286979214
H           -5.61674633214720        0.57510933582234        2.71060535468565
H           -4.57373195422800       -1.83296734235607       -0.97901194159847
H           -2.12044332999359       -1.72573308994821       -1.02730741482198
H           -0.24853369158842       -1.86534614811056        0.40353066461499
H            5.28002687677513       -3.25933149930670       -0.25347239352849
H            6.90818151888716       -5.06081986964785        0.17657420376457
H            9.14327099493996       -4.51625141175297        1.07059675799305
H            9.73106455409490       -2.17136719265783        1.56232888466900
H            8.10551885601042       -0.37460258536670        1.14670326351391
H            5.89272601295815        3.24699683662860        0.56895308785739
H            7.79923381222807        4.77432879009450        0.17598191951205
