67
 energy: -106.913192903745 gnorm: 0.000069579868 xtb: 6.7.1 (edcfbbe)
C            8.91349442109410        3.33360704743790       -0.76358580343602
C            8.91295616629366        2.07184713929864       -1.33742744885370
C            7.86956822678231        1.19810975822140       -1.09891158054993
C            6.80986642314272        1.58183325495915       -0.27623338824957
C            5.67660984130417        0.70170869481392       -0.04457927529534
N            4.43449941784768        1.18476525075919       -0.02330824634207
C            3.62162564613148        0.13044284739446        0.10003018517856
C            2.22904726233407        0.17954763526907        0.14386736526069
C            1.53516059761430        1.42514763929651        0.03238170992896
C            0.17967051956372        1.43191902812649       -0.01614819657586
C           -0.55718632210957        0.21044121816573        0.04812113272542
C           -1.98860241570576        0.15935125170665        0.04188082811114
C           -2.76793458942370        1.26672044726344        0.43944565159637
C           -4.13890453704572        1.22088805970733        0.42631061147295
C           -4.80652751222065        0.06713673316593        0.00209120664358
N           -6.20112932763626        0.02095547258980       -0.01743665705871
C           -6.98183077716847       -0.40537621485776       -1.07428523089704
C           -6.60116666260633       -0.81778698104895       -2.34377664842252
C           -7.59889785589834       -1.16322768630277       -3.23576798090766
C           -8.94478743014528       -1.09300906041895       -2.88448444040995
C           -9.33084577901306       -0.65668544671881       -1.63124307558324
C           -8.34709959819519       -0.30492535691776       -0.71856837751241
C           -8.38192861352446        0.20221396399939        0.62622390849991
C           -9.41074077315724        0.48747208680700        1.51199487146898
C           -9.08793703084154        0.94789028998810        2.77450350352165
C           -7.75950807770571        1.10713892716649        3.16135180215147
C           -6.71769139386859        0.82893295092380        2.29668349869771
C           -7.03628208429509        0.39289025923694        1.01799171627764
C           -4.05312461931595       -1.04100252833273       -0.40035626239906
C           -2.68228566005983       -0.99808863506851       -0.37104718378755
C            0.23222076065786       -0.96087599865656        0.20292012139947
N            1.52194283878173       -0.97580557948925        0.26867109217511
O            4.30935969027311       -1.05208147351106        0.15918181946124
C            5.63094919728370       -0.70827840427825        0.10537724488566
C            6.61452427098308       -1.71895413286225        0.29177664885794
C            6.24327569430376       -3.07210875880679        0.15880836607771
C            7.17069957202304       -4.07269672931963        0.33491440627349
C            8.48623973861859       -3.76288081030921        0.65877617467701
C            8.85919639469053       -2.43392120098815        0.82140681782813
C            7.94382168601037       -1.42074530470697        0.64708191368356
C            6.80316847389464        2.86286891634555        0.27420225210731
C            7.85362459869841        3.72813803358147        0.03763644074828
H            9.73436031436578        4.01070321449383       -0.94861894161452
H            9.72843571921375        1.76933998905266       -1.97802011277504
H            7.85957888313579        0.22358959199589       -1.56473408350597
H            2.12820776702442        2.31883828034635       -0.07002356707872
H           -0.35033337244647        2.36223126903798       -0.15533629752560
H           -2.27780022027014        2.16692803488263        0.77656019061273
H           -4.71511375898367        2.08628279502768        0.71916250896932
H           -5.56198030234883       -0.85503070254060       -2.63278718305861
H           -7.32843428324554       -1.48998134580253       -4.22881403541249
H           -9.69465824173384       -1.37376709081082       -3.60879540831681
H          -10.37467209178390       -0.58376551274767       -1.36607804291919
H          -10.44002365858029        0.34563886217160        1.21932125991225
H           -9.87378053171626        1.17780766925358        3.47831107071748
H           -7.53782966989264        1.45056114189880        4.16084224821925
H           -5.69131642145434        0.93427629245763        2.61334912779732
H           -4.56297220453377       -1.94149851636521       -0.70979672725970
H           -2.12487438227976       -1.86459623658556       -0.69199869633136
H           -0.24768795125580       -1.91759580109775        0.36532987223145
H            5.22036040202391       -3.30499885382913       -0.09389834129818
H            6.87435560142149       -5.10523809422653        0.22073123881825
H            9.21210153949557       -4.55020520194846        0.79521400357802
H            9.87525836685809       -2.19201547918802        1.09756206406507
H            8.23481322240949       -0.39515445180292        0.81136960128787
H            5.96744831422250        3.15794899771325        0.88947924694230
H            7.84698625841885        4.71522833877266        0.47620008181047
