34
 energy: -52.359449651461 gnorm: 0.000026528907 xtb: 6.7.1 (edcfbbe)
C           -5.16193404402004       -1.53030087530929       -0.00902633405318
C           -5.57704671916967       -0.20296648595401       -0.01223830692620
C           -4.63766307492434        0.81828611298385       -0.00875768796920
C           -3.28281097050542        0.51842901508405       -0.00256398098716
N           -2.34061015095486        1.51478530617088        0.00051737603712
C           -0.98187094818029        1.28852935147746        0.00233807413435
C           -0.09906007124076        2.37391053966496        0.00105138440464
C            1.27421227160312        2.18262914340731        0.00002772907795
C            1.76288821782389        0.88210401644491        0.00076491369642
C            3.11952054949592        0.36665096902725       -0.00238035176701
C            4.34875808722271        0.98473956893463       -0.00865578345698
C            5.49897271031406        0.19346560284178       -0.01227322969735
C            5.41405729936552       -1.19266931989202       -0.00919865068249
C            4.18482730860446       -1.83319208837410       -0.00276519554782
C            3.02445488184594       -1.05980542484723        0.00036185746765
C            1.65695173566339       -1.41898083460388        0.00479472562347
C            0.88452709814958       -0.23424920361265        0.00428424423648
C           -0.52154399532350       -0.04906904818453        0.00464066889036
C           -1.46040858568569       -1.09901496573179        0.00515659508629
C           -2.83848570885566       -0.83404963452389        0.00043455392398
C           -3.82064314241405       -1.84467721741551       -0.00265968359128
H           -5.89865996669012       -2.32063164312187       -0.01169990859777
H           -6.62951632024261        0.03692061838058       -0.01748775736857
H           -4.95490391750455        1.85175080264263       -0.01118437429875
H           -2.66295861083377        2.47327194717620       -0.00179923967099
H           -0.50480096265255        3.37604796995198        0.00004216718311
H            1.94346290869493        3.02882659987557       -0.00174436254201
H            4.43245846948055        2.06212989839242       -0.01124698011255
H            6.46978939945347        0.66760042130739       -0.01768422384213
H            6.32184662475766       -1.77913362299259       -0.01218045429713
H            4.12496003830223       -2.91228400185468       -0.00062844358566
H            1.27957210764750       -2.42487905730973        0.00764215080601
H           -1.12022523773521       -2.12142745520476        0.00754684930945
H           -3.49921188870785       -2.87581965325969       -0.00027628063814
