64
 energy: -97.008882087587 gnorm: 0.000050418996 xtb: 6.7.1 (edcfbbe)
C            8.60382184866861        0.00192104422366        0.00015964723747
C            7.90687448213333        0.57174947293052       -1.05324980477201
C            6.52543247096438        0.57735759929044       -1.05264151270968
C            5.81090950254315        0.00132684801509       -0.00001454616644
C            4.34665686181208        0.00101494642705       -0.00010541222604
C            3.63767353367465       -1.23845319108518        0.05690402478917
C            4.30447879966696       -2.46578222159840        0.04895959055462
C            3.61454235499757       -3.66928035230418        0.18558170317298
C            2.24669320342519       -3.65999408114700        0.34107734228442
C            1.55218707345220       -2.45133925440980        0.30177546937638
C            2.21223593104272       -1.23661652600250        0.10827470472020
C            1.50016529311354        0.00040787676304       -0.00027854380977
C            0.04224416166041        0.00009682738623       -0.00036832293696
C           -0.67864203863666       -0.76397653543878       -0.92511382144211
C           -2.05621469126547       -0.75539968566740       -0.93621850814048
C           -2.76268013657598       -0.00049930157817       -0.00054331696443
N           -4.16123839143263       -0.00079483134283       -0.00063118848840
C           -4.97005887236639        1.11794646124559        0.04973733095925
C           -4.62301868542867        2.46154899769382        0.05781776069232
C           -5.64422610962955        3.39203579640848        0.08475211169373
C           -6.98211275846502        3.00436465175179        0.09311024019640
C           -7.33424803655552        1.66975722352211        0.05684281093926
C           -6.32560856244592        0.71626185392471        0.02997352704449
C           -6.32530233873564       -0.71876360541892       -0.03150270527748
C           -7.33353662455168       -1.67268388671632       -0.05849633432904
C           -6.98083454821377       -3.00714279701561       -0.09472096008048
C           -5.64278569141305       -3.39425011366687       -0.08619865882839
C           -4.62197373869749       -2.46333309960400       -0.05913819927548
C           -4.96958102306497       -1.11987692292447       -0.05109961789012
C           -2.05665228003013        0.75470043873899        0.93522065217970
C           -0.67908206590407        0.76386287650442        0.92428791308772
C            2.21172144106632        1.23773596495591       -0.10874511539518
C            1.55117805343860        2.45217716683081       -0.30232546768173
C            2.24517339257879        3.66112807239396       -0.34154342973501
C            3.61299969745558        3.67099766284425       -0.18588289400085
C            4.30343276677403        2.46779387750438       -0.04917717747486
C            3.63715193163094        1.24018058235509       -0.05720167441595
C            6.52554626896808       -0.57439988803856        1.05270152039660
C            7.90698565148631       -0.56820396154182        1.05348218024472
H            9.68371385262359        0.00215078729003        0.00022698351607
H            8.44398411636729        1.01253147879846       -1.88071994060772
H            5.98394299570104        1.00757256801753       -1.88307881379352
H            5.37722083763416       -2.48608854403590       -0.06734608551897
H            4.16177267931565       -4.60013703753573        0.18223486104765
H            1.70259137367393       -4.58185128726285        0.48320064118984
H            0.48085869134916       -2.46006468105721        0.43216002952547
H           -0.14066920405345       -1.33411878294929       -1.66837050998225
H           -2.59727264859753       -1.31548463269300       -1.68431381311546
H           -3.59022058246254        2.77438700451137        0.03113401126503
H           -5.39911438618290        4.44387019470005        0.09569289422639
H           -7.75101930913346        3.76212860091676        0.11793837965096
H           -8.37099147231176        1.36895263769793        0.04492172891536
H           -8.37040817103363       -1.37231615484372       -0.04670264821611
H           -7.74941867602795       -3.76523066405953       -0.11964390230286
H           -5.39722944352779       -4.44598113065527       -0.09711002935696
H           -3.58904721068790       -2.77573595073904       -0.03232776603133
H           -2.59804168219348        1.31455512508850        1.68324852756218
H           -0.14144438048397        1.33423343752060        1.66761193307420
H            0.47986179569584        2.46044585389474       -0.43283927146663
H            1.70069559100590        4.58275316409494       -0.48373226015874
H            4.15983261923940        4.60208762254547       -0.18247029891046
H            5.37615200278916        2.48855770899800        0.06725789544245
H            5.98413624372342       -1.00484545166591        1.88307113008838
H            8.44417955325156       -1.00875747801290        1.88101929365121
