64
 energy: -97.072002064064 gnorm: 0.000037046050 xtb: 6.7.1 (edcfbbe)
C            8.49633287786859        0.00006194266170        0.00349178865404
C            7.80285762907451       -0.21096593072320       -1.17651120065848
C            6.41969019392648       -0.20852313444713       -1.17962905047776
C            5.71334312931908        0.00112427128824        0.00056740793948
C            4.23457159682025        0.00067894598003       -0.00055442049370
C            3.53771245178488       -1.06223888232875        0.59099740643246
C            4.21412112184430       -2.16653751577607        1.17322411466413
C            3.52761530224385       -3.19870050753756        1.73426316237891
C            2.11839960016512       -3.19739795618957        1.73712777959910
C            1.43169168239498       -2.16458045515861        1.17769665271242
C            2.10808117831724       -1.06202551109372        0.59213804247978
C            1.41142504657130       -0.00039049852535       -0.00131825127808
C           -0.06705731826826       -0.00068082081045       -0.00096560653823
C           -0.77475646671774       -0.22655978472778       -1.17772225683242
C           -2.15579181846961       -0.22483467178609       -1.18155359419114
C           -2.85659131878635       -0.00094061907397        0.00013067247564
N           -4.25828476502640       -0.00069671900959        0.00063142623164
C           -5.06537964544796        0.98807678509461        0.52650767658966
C           -4.71494955630983        2.19460548344063        1.11540594949804
C           -5.73438446199203        3.02600171830541        1.53769763280084
C           -7.07320823882207        2.67672155197051        1.37450973262127
C           -7.42803726078735        1.48811095808537        0.76883285344783
C           -6.42126568657357        0.63542471686233        0.33556733635824
C           -6.42187096182225       -0.63457643197995       -0.33461663080464
C           -7.42945870713646       -1.48621361963617       -0.76804380520135
C           -7.07576536935412       -2.67520796368588       -1.37363015193996
C           -5.73727859595829       -3.02590390442745       -1.53655333700646
C           -4.71704524190249       -2.19554532653357       -1.11414406616284
C           -5.06631812840495       -0.98861719025081       -0.52537441518971
C           -2.15491683019791        0.22291454975548        1.18130548539088
C           -0.77389742524879        0.22490689206164        1.17637809790567
C            2.10759714543785        1.06153129416411       -0.59481781914681
C            1.43071101023893        2.16336813087031       -1.18116372328466
C            2.11695738445239        3.19639283775236       -1.74077337491453
C            3.52617831269410        3.19871809981862       -1.73722016509516
C            4.21315861041705        2.16738029168498       -1.17523575073770
C            3.53725349295438        1.06282757571649       -0.59289363976174
C            6.41741644117438        0.21051200598239        1.18219921606435
C            7.80056364464212        0.21188398443224        1.18200341914287
H            9.57637093585047       -0.00048059413071        0.00466330510516
H            8.34149338159144       -0.37766523912090       -2.09808953767170
H            5.87596577106822       -0.37544408225616       -2.09867411319982
H            5.29385747963427       -2.17607044208884        1.15630518489298
H            4.05679987071195       -4.03162439392673        2.17351541276462
H            1.58929853522094       -4.02897892214433        2.17911887221040
H            0.35174363898874       -2.17238565343168        1.16517729646503
H           -0.23276891139834       -0.40178469824548       -2.09580367788615
H           -2.69933455465396       -0.38312264083537       -2.10110122045497
H           -3.68056541972544        2.48185157674772        1.23117732306592
H           -5.48762286718269        3.96970451184816        2.00167327436100
H           -7.84064925734668        3.35310090449719        1.72054326050954
H           -8.46547492603477        1.22427550420541        0.62841012411176
H           -8.46664403712910       -1.22127654574893       -0.62783017092803
H           -7.84385590713528       -3.35078267011413       -1.71979664267760
H           -5.49143498834440       -3.96990012648321       -2.00041953390808
H           -3.68293532681616       -2.48385994718803       -1.22972232681244
H           -2.69776585631690        0.38101118288516        2.10129378896354
H           -0.23120720955355        0.40015087684149        2.09404020212309
H            0.35074933923801        2.17035493898108       -1.16928792765894
H            1.58746795103502        4.02728546763904       -2.18360253750007
H            4.05494372167083        4.03182213190181       -2.17663945587750
H            5.29288235086083        2.17769025534131       -1.15769998225830
H            5.87188743477045        0.37780577509519        2.10009870627828
H            8.33737779587512        0.37821623750910        2.10469678231725
