64
 energy: -97.008895556688 gnorm: 0.000055100235 xtb: 6.7.1 (edcfbbe)
C            8.60326464343640        0.00283470838797       -0.02098237451796
C            7.90021856855515        0.62617283286404       -1.03948480967528
C            6.51884380180481        0.63062783198271       -1.03095441188217
C            5.81041155505022       -0.00006615759412       -0.00583249660034
C            4.34628628056403       -0.00117157499979        0.00140705907650
C            3.63742524153060       -1.24179107281823        0.00092958580702
C            4.30412476102771       -2.46725237885625       -0.07067059223550
C            3.61539829743254       -3.67586818555701        0.01519997854100
C            2.24920110937005       -3.67388790580268        0.18566347625116
C            1.55458260575702       -2.46494739403293        0.20816982444360
C            2.21234211561178       -1.24246991714927        0.06134755493167
C            1.49909632869196       -0.00190449103376        0.00815559849457
C            0.04217754551521       -0.00287318796309        0.00758546800772
C           -0.67827406873298       -0.74627087825320       -0.93503711360564
C           -2.05565386773390       -0.73925430645500       -0.94630964616953
C           -2.76300952523913       -0.00240046537595        0.00288522816685
N           -4.16170032838159       -0.00059322999354       -0.00045201651660
C           -4.96813341252849        1.11935128182612        0.05112310300768
C           -4.61693469639897        2.46173990277621        0.06520639835272
C           -5.63564957184597        3.39498427309387        0.08851929437402
C           -6.97458123421821        3.01066197289526        0.08838744757045
C           -7.33043984776309        1.67707711297067        0.04854345686291
C           -6.32447693895196        0.72064356958021        0.02498725256794
C           -6.32672152379517       -0.71437656280708       -0.03956387345839
C           -7.33581463155708       -1.66731818748030       -0.06954460878571
C           -6.98431823979613       -3.00211847075932       -0.10733645800504
C           -5.64674185392622       -3.39105471741319       -0.09920336603017
C           -4.62496105568221       -2.46134127430521       -0.06941623420517
C           -4.97160134116320       -1.11774865228773       -0.05726354691328
C           -2.05854631163794        0.73324597550132        0.95515321420710
C           -0.68110278910067        0.73977385139127        0.94859232657357
C            2.21120801706305        1.23925478751450       -0.04569095144542
C            1.55253860925046        2.46188555077973       -0.18733425045425
C            2.24688634440360        3.67098235573951       -0.16523903698442
C            3.61384603329303        3.67309698167211       -0.00107549074927
C            4.30329157450278        2.46448204429697        0.07876149689364
C            3.63656484003672        1.23900698614770        0.00803047301863
C            6.53114436143664       -0.62915706224348        1.01160531365236
C            7.91255486455254       -0.62184699424293        1.00508505979567
H            9.68313222334642        0.00398547475007       -0.02681538822314
H            8.43250860471818        1.10994075688006       -1.84577873904567
H            5.97246105291682        1.10324322291524       -1.83471143095562
H            5.37579888425561       -2.48149868853126       -0.19727232772354
H            4.16211799556897       -4.60551306366709       -0.03782151011707
H            1.70633752481037       -4.60135569709159        0.29131434298815
H            0.48487527723316       -2.48042751471971        0.35048628947648
H           -0.13972430845665       -1.29779513620755       -1.69177058577910
H           -2.59642255104346       -1.28542725734915       -1.70492582701461
H           -3.58276357083186        2.77075080975063        0.04583246188687
H           -5.38790031223969        4.44615900749042        0.10295016113517
H           -7.74154837607924        3.77049967738179        0.10966141095141
H           -8.36804264850094        1.37953858470711        0.03081440739809
H           -8.37247129693959       -1.36618426115992       -0.05831458558389
H           -7.75376334907160       -3.75929434258914       -0.13351393539521
H           -5.40256512012609       -4.44308327481723       -0.11230246134493
H           -3.59199510324156       -2.77391473757495       -0.04376331766282
H           -2.60169945523457        1.27935392159008        1.71210999376496
H           -0.14495625082304        1.29057995165802        1.70754453288202
H            0.48227575688287        2.47748025081271       -0.32525444314363
H            1.70323770611863        4.59849683501909       -0.26638970924082
H            4.16053753595152        4.60278621518572        0.05143222961436
H            5.37560691565124        2.47869649279766        0.19990446368939
H            5.99455497858682       -1.10252852295430        1.82149479146609
H            8.45457787957358       -1.10436000001521        1.80563360519155
