176
 energy: -269.831383614081 gnorm: 0.000115467572 xtb: 6.7.1 (edcfbbe)
C           -5.72295444274845       -2.91185161340039       -0.12531725659756
C           -5.64407623120514       -1.56764737602811       -0.54778037906356
C           -6.60962069774402       -0.62356078201868       -0.27308747907867
N           -7.78036961296338       -0.83975837858461        0.34994400700092
C           -8.37792804410100        0.34565249765427        0.45144169427978
C           -9.63568566389831        0.64028615465972        1.05560600307138
C          -10.39548540245204       -0.37047669062130        1.65057134074689
C          -11.59223207447801       -0.07515597320747        2.25857047433849
C          -12.03738970076971        1.24349562180679        2.28016195694076
C          -11.29896151751941        2.24645812420923        1.69184373305033
C          -10.07909076147540        1.98319801211561        1.05316120688105
C           -9.29607372266173        3.01533205263389        0.39365393292681
C           -9.74544603902125        4.33697638461385        0.30304013965453
C           -9.02955867117384        5.31036634126815       -0.35759672691200
C           -7.82466154231783        4.99192705101913       -0.98013525035520
C           -7.34201621022628        3.71073208981657       -0.90999225345724
C           -8.04287870393405        2.70622588353830       -0.21616743267504
C           -7.58629710821212        1.37275013248651       -0.12162516678793
N           -6.46229756863201        0.74865843441330       -0.58940453662675
C           -5.25642617747928        1.31248156103032       -1.02585495427132
C           -4.57403584781156        2.22774925024973       -0.22419039486246
C           -3.34648386177435        2.71770073068898       -0.61437579605177
C           -2.75847623388489        2.29143562950847       -1.80808953393938
N           -1.49110072824261        2.74050467256519       -2.18731238830722
C           -0.60388847827236        1.84211348469138       -2.79834905206406
C           -0.54758769726457        0.51453351238977       -2.37424994004206
C            0.34461460440296       -0.36614680004238       -2.95509896770572
C            1.19172639269775        0.05813503258068       -3.96575218406378
C            1.12916599361995        1.37213171191563       -4.40103053791415
C            0.23770865459987        2.25924946612251       -3.82901907380229
C           -1.10411472431023        4.06273374301619       -1.95362751906920
C            0.23158922725489        4.37859106125870       -1.70034798229089
C            0.61130599831765        5.68961424529236       -1.48807565685358
C           -0.32988622479933        6.70560892730616       -1.50248961568702
C           -1.65831405350913        6.39785964626520       -1.74538603926424
C           -2.04493820324911        5.09266475703427       -1.97835583699841
C           -3.45602951281117        1.39342384382254       -2.61835076315974
C           -4.68961770243758        0.91204593114989       -2.23456669195170
C           -4.74448763142280       -3.86898561358427       -0.37407971490399
C           -3.65832012739583       -3.66079838449956       -1.27672299902005
C           -2.63060687932851       -4.54619796550298       -1.36713777734295
C           -2.57753773744767       -5.71898508600075       -0.57501077197169
C           -1.38215625281036       -6.52412423681814       -0.52588149013474
C           -0.13794266524439       -5.94777601109767       -0.84198910050726
C            1.03191352357761       -6.64580453802259       -0.70586696024667
C            1.03341563559902       -7.97066000179515       -0.25033555884939
N            2.26127108846108       -8.59761711435773       -0.02188229156613
C            2.53359159106538       -9.91638030458302       -0.34713451260861
C            1.77972845988282      -10.59805818930028       -1.30502777645531
C            2.07055597898829      -11.91291865590363       -1.60868278479497
C            3.11669725789760      -12.56777047864911       -0.97854043366023
C            3.87614276664984      -11.89174492503959       -0.03695922386989
C            3.58989850020114      -10.57989209273569        0.28217175088583
C            3.26097021677934       -7.72564444513929        0.45469961407549
C            4.44394472261488       -7.49755882403590       -0.24401628298721
C            5.22842525745228       -6.40642693544183        0.07429592555688
C            4.86662422833258       -5.53207455920918        1.10117689582559
C            5.47503510559431       -4.20569183185904        1.22025346872182
C            6.80021073648606       -3.92309699104226        0.88729582127698
C            7.25662287293735       -2.62133200952796        0.84259891124204
C            6.40811971706416       -1.54231694621918        1.11407877314915
C            6.85617499815319       -0.18005958402915        0.92124830277232
C            6.00909025885753        0.85981321922528        0.82376993488660
C            6.37105613951218        2.22058630074428        0.59300747856227
N            7.58455444304516        2.71320213174524        0.49001299425954
C            7.43219037770486        4.04872249291023        0.32334304295049
C            8.44987192637651        5.03279082209182        0.17534143124040
C            9.80293095654272        4.67866923269696        0.18120887438980
C           10.77266871332823        5.64094013016838        0.05015575163944
C           10.39722394767978        6.97564248731508       -0.08817224673530
C            9.06971583064831        7.33511002029776       -0.09680113416265
C            8.04882240149448        6.38104601255548        0.03226238752231
C            6.63854498960179        6.73027358297647        0.01599760078814
C            6.20761807030786        8.05532638810011       -0.13853318034288
C            4.87452324547578        8.39055775623297       -0.16531687008721
C            3.90167044058072        7.40257433252557       -0.05005826943692
C            4.28058425113284        6.09158948097546        0.10018187482919
C            5.63511497604255        5.73179634703106        0.15001886721524
C            6.07678558487165        4.39220839912018        0.32631664604825
N            5.40291663693139        3.20947601280949        0.49046980790155
C            4.02626185969696        2.95560715668915        0.65345320953617
C            3.36090851378425        3.38720865722481        1.79795441256657
C            2.05424647512699        3.00981540282044        2.02364957454282
C            1.38853727516140        2.17530990141349        1.12269869291826
N            0.09296952207964        1.72770884652315        1.39847840790484
C           -0.82044499250767        2.61449724097941        1.98432005718194
C           -1.73347392648227        2.18523244094411        2.94672682993350
C           -2.64581416007186        3.07253009834861        3.48456337989129
C           -2.65649002365608        4.39993694626686        3.08781790418699
C           -1.73486529564643        4.83783323138435        2.15092420172048
C           -0.82410831442961        3.95621643708061        1.60108513056762
C           -0.24314860705802        0.38542104169773        1.18302748840397
C            0.72904246403871       -0.61235922301174        1.26025921552743
C            0.39293475591618       -1.93657573594568        1.05333907192086
C           -0.91758084816914       -2.29706005586657        0.78990143831147
C           -1.88956085323109       -1.31316340304741        0.71730610059780
C           -1.55909859017733        0.01645902630068        0.89778861218899
C            2.04752666969249        1.77804144385900       -0.04243276689623
C            3.35154037170531        2.16616039859454       -0.27475677831726
C            5.10277694161645       -1.83780899951086        1.52332414497723
C            4.64905812677228       -3.13290202044653        1.56884092096634
C            3.77709379094526       -5.88135573888335        1.90545948948949
C            2.97895922809899       -6.95309778868223        1.58142404758662
C           -0.19670616092282       -8.57748069569528        0.02024234078623
C           -1.36911516156966       -7.86812112904604       -0.11045590667061
C           -3.71796844795234       -6.00066230137313        0.21450565322422
C           -4.75735374944109       -5.12447075047631        0.30503234612568
H           -6.57364865402233       -3.17579808517435        0.48539723195870
H           -4.75759423225930       -1.23071369243606       -1.06202179816184
H          -10.00760439102887       -1.37661266511674        1.61696289306810
H          -12.18183406741500       -0.85358068371160        2.71940580931074
H          -12.97338704048360        1.48540405918805        2.76285595450101
H          -11.68427577112009        3.25276984306847        1.73697882182066
H          -10.68535990891134        4.61648872032109        0.75119969846027
H           -9.41042552637609        6.31979631827125       -0.40459970189773
H           -7.27599205142853        5.75016482985560       -1.51912449902881
H           -6.41864130441305        3.45945493358338       -1.40804663626733
H           -5.00631115555794        2.54026939864890        0.71524226782326
H           -2.82217933428729        3.41560594765336        0.02051257570112
H           -1.19617169748516        0.17918568436061       -1.57906978041160
H            0.38353529363319       -1.38643493292668       -2.60263802106869
H            1.89271528606483       -0.62995090804493       -4.41300156245352
H            1.77595945908505        1.70894853249710       -5.19763879106539
H            0.18749425997269        3.28037716413716       -4.17736791755579
H            0.97110899914771        3.59211014886569       -1.66635148273779
H            1.65134645423255        5.91478371110363       -1.30606662091810
H           -0.03065352901501        7.72849778773745       -1.33138224341558
H           -2.39994759101420        7.18276891999983       -1.76721618845927
H           -3.07930469839996        4.86485693541437       -2.18937592493540
H           -3.02230028114655        1.07746402883604       -3.55551264286469
H           -5.23182743090899        0.23476961428763       -2.87770290869213
H           -3.65941651827575       -2.79044184158919       -1.91501924001118
H           -1.84407763750238       -4.35726102629431       -2.08286597275947
H           -0.08560628522005       -4.91961346707587       -1.16378409018721
H            1.96957001202805       -6.16661753475309       -0.94650176367618
H            0.97954613030822      -10.08530178101604       -1.81756839090472
H            1.48064126438984      -12.42839267756132       -2.35232063890772
H            3.34031622894039      -13.59517070923078       -1.22173613244713
H            4.69433574822156      -12.39312784906178        0.45880627947273
H            4.17502817168334      -10.05781487454331        1.02528442590428
H            4.69771755701650       -8.12893066633158       -1.08320907897408
H            6.09085276759112       -6.18337276783841       -0.53594398203970
H            7.47876735168086       -4.73287112430650        0.66092693183215
H            8.28138745198395       -2.42420158539633        0.56153814915982
H            7.91566296021682       -0.00973487318770        0.79617290710266
H            4.94539968543980        0.69239436505114        0.91135182281485
H           10.04911358002805        3.63428108068858        0.29357261418850
H           11.81861276666060        5.37180872929207        0.05472868380046
H           11.15661350474159        7.73760511943163       -0.18998877509930
H            8.82788078706851        8.38046514267196       -0.20607601710882
H            6.93210785403527        8.84699757031239       -0.24045234020846
H            4.58144241776588        9.42370211525027       -0.28090637239727
H            2.85488489553742        7.66837618353192       -0.07537059847317
H            3.52852108410711        5.32154595910338        0.18079776685379
H            3.88348027566398        4.00048593428683        2.51718138389413
H            1.54894109546681        3.33177690863780        2.92181503945546
H           -1.72268084375978        1.15559637468859        3.27205102634412
H           -3.34975229034834        2.72455828236437        4.22607596570937
H           -3.37377874309354        5.08780177305866        3.50867368167863
H           -1.72959700602184        5.86973627182325        1.83184863779330
H           -0.11841877102653        4.30174990038848        0.86057224133998
H            1.74963952624508       -0.34740358696629        1.49364362380981
H            1.15999318600834       -2.69521647316639        1.11165133518611
H           -1.18516453612225       -3.33244164973987        0.64694911946899
H           -2.91432047520906       -1.58518110344440        0.51456340013082
H           -2.32282665265960        0.77620418832525        0.81927522042719
H            1.53661960382260        1.14764804469907       -0.75561259106893
H            3.86000926713269        1.84723661647752       -1.17301138313601
H            4.42874668625966       -1.04254556072406        1.80210810458112
H            3.61994586293754       -3.31765376386589        1.83836855455557
H            3.53922172945528       -5.28842361215668        2.77558879110193
H            2.09661577920893       -7.17548189604204        2.16359244142104
H           -0.21977282933393       -9.60215897774183        0.36229443974409
H           -2.30135719425216       -8.36596568743633        0.10935821208554
H           -3.74231283424268       -6.90820443430431        0.79938940156253
H           -5.59913060068244       -5.34670132959385        0.94510266328472
