  176
       -269.82858500
 C         -5.7358924995       -2.9167964103       -0.1806343059
 C         -5.6493220002       -1.5779854280       -0.5895588918
 C         -6.6074506112       -0.6249449340       -0.3026501355
 N         -7.7730941986       -0.8342279971        0.3273904604
 C         -8.3557384685        0.3575894337        0.4497973454
 C         -9.6005783589        0.6610502295        1.0751494356
 C        -10.3651887459       -0.3466755365        1.6692313412
 C        -11.5468263631       -0.0422852685        2.3020159124
 C        -11.9714657316        1.2823879610        2.3497527097
 C        -11.2285811220        2.2825625012        1.7620291879
 C        -10.0242728281        2.0103584482        1.0980926432
 C         -9.2379900060        3.0395601542        0.4384327676
 C         -9.6707131380        4.3680722797        0.3705253837
 C         -8.9528198150        5.3395238451       -0.2907754009
 C         -7.7637120167        5.0117880370       -0.9386169644
 C         -7.2973418290        3.7237085697       -0.8911516246
 C         -7.9987476238        2.7207708536       -0.1951065391
 C         -7.5575686782        1.3810952623       -0.1201603029
 N         -6.4462587327        0.7481561746       -0.6063103889
 C         -5.2386500334        1.3057251741       -1.0436355368
 C         -4.5529116968        2.2185325378       -0.2413796165
 C         -3.3248969366        2.7057448361       -0.6321571648
 C         -2.7383794200        2.2782775825       -1.8261984291
 N         -1.4695827405        2.7252352268       -2.2039370166
 C         -0.5787456718        1.8235401313       -2.8031847571
 C         -0.5375760355        0.4942138238       -2.3820770123
 C          0.3583123192       -0.3906199109       -2.9504970016
 C          1.2248790414        0.0307906849       -3.9457097204
 C          1.1774815339        1.3462424689       -4.3784058870
 C          0.2821888357        2.2375761783       -3.8191713142
 C         -1.0872584698        4.0495234946       -1.9726447779
 C          0.2443054697        4.3711063753       -1.7055564528
 C          0.6168962497        5.6845650242       -1.4952835723
 C         -0.3276941094        6.6970735042       -1.5253486359
 C         -1.6522751258        6.3835768802       -1.7814699944
 C         -2.0315169850        5.0758939094       -2.0124623427
 C         -3.4388009781        1.3831934098       -2.6372423002
 C         -4.6738740576        0.9055573775       -2.2537202495
 C         -4.7547375390       -3.8774320472       -0.4242830925
 C         -3.6606601187       -3.6680713158       -1.3147483646
 C         -2.6314729325       -4.5529171969       -1.3956036192
 C         -2.5853752326       -5.7269379011       -0.6038507191
 C         -1.3913115388       -6.5286146849       -0.5399520556
 C         -0.1439429404       -5.9561237943       -0.8584417130
 C          1.0251348262       -6.6500656923       -0.7055432332
 C          1.0261127143       -7.9703445136       -0.2334760538
 N          2.2521450794       -8.5927841676        0.0076564077
 C          2.5230206703       -9.9184228652       -0.2880441433
 C          1.7731382188      -10.6179893010       -1.2365022243
 C          2.0625097630      -11.9394201542       -1.5108772855
 C          3.1032003108      -12.5833413685       -0.8606397895
 C          3.8590154535      -11.8896776087        0.0710995922
 C          3.5742549133      -10.5709557191        0.3611654084
 C          3.2508661190       -7.7154507631        0.4760242178
 C          4.4395175447       -7.5028146679       -0.2189134943
 C          5.2251883021       -6.4091689771        0.0856186634
 C          4.8602902520       -5.5153442622        1.0955679612
 C          5.4711032503       -4.1902429815        1.1976575565
 C          6.7947789543       -3.9114429158        0.8517242034
 C          7.2529803593       -2.6115358339        0.7922637389
 C          6.4087551092       -1.5270906540        1.0603403061
 C          6.8570234531       -0.1684021665        0.8561210822
 C          6.0089720192        0.8740839767        0.7731374605
 C          6.3610154741        2.2360620707        0.5439647496
 N          7.5693443303        2.7400523375        0.4281346346
 C          7.4040436922        4.0760556359        0.2812297186
 C          8.4115895269        5.0699442667        0.1292317209
 C          9.7668081661        4.7253045741        0.1000464459
 C         10.7271419371        5.6961994299       -0.0367308868
 C         10.3400188934        7.0303101141       -0.1454477939
 C          9.0103197565        7.3806767286       -0.1188723317
 C          7.9987568723        6.4177149073        0.0173282412
 C          6.5863925087        6.7575944040        0.0370368417
 C          6.1438533479        8.0830317108       -0.0753491023
 C          4.8083017774        8.4095524249       -0.0700494412
 C          3.8442259397        7.4117392473        0.0350753767
 C          4.2346630799        6.1003526486        0.1464219182
 C          5.5923468770        5.7488132790        0.1660169894
 C          6.0460696481        4.4097369154        0.3100547178
 N          5.3835435850        3.2197131970        0.4675530146
 C          4.0110904836        2.9520088943        0.6385009020
 C          3.3481336469        3.3693251708        1.7897326158
 C          2.0449755666        2.9814443407        2.0179252460
 C          1.3807922571        2.1500088104        1.1131301965
 N          0.0868291788        1.6971127180        1.3887514443
 C         -0.8272345079        2.5799364365        1.9792942869
 C         -1.7371431885        2.1455487842        2.9423346955
 C         -2.6496879517        3.0292244597        3.4856966401
 C         -2.6635678841        4.3580754762        3.0939375429
 C         -1.7452592761        4.8010212886        2.1561538365
 C         -0.8345076462        3.9230038057        1.6005283934
 C         -0.2478140374        0.3559612429        1.1657424414
 C          0.7261151679       -0.6408574335        1.2332545003
 C          0.3908409492       -1.9642811471        1.0200879913
 C         -0.9202014675       -2.3248525099        0.7594437227
 C         -1.8936359560       -1.3418012285        0.6949323452
 C         -1.5642110378       -0.0129189753        0.8821113753
 C          2.0383028788        1.7633362267       -0.0562558199
 C          3.3382427675        2.1628697101       -0.2915212335
 C          5.1053584407       -1.8184744204        1.4821069842
 C          4.6501325202       -3.1115902952        1.5430858682
 C          3.7648120715       -5.8498270744        1.8998000554
 C          2.9642384346       -6.9226553126        1.5878133173
 C         -0.2061441279       -8.5748238065        0.0387009824
 C         -1.3775847999       -7.8685355600       -0.1058083314
 C         -3.7364207193       -6.0102955547        0.1703688089
 C         -4.7761927822       -5.1331615008        0.2510804749
 H         -6.5933901676       -3.1861496067        0.4184841682
 H         -4.7630813653       -1.2416074544       -1.1049504424
 H         -9.9926553942       -1.3577402934        1.6156173654
 H        -12.1398304745       -0.8182928617        2.7625352763
 H        -12.8948504982        1.5314762572        2.8526698474
 H        -11.5977016320        3.2937725022        1.8281570284
 H        -10.5992640107        4.6548094562        0.8374097298
 H         -9.3202335533        6.3545853862       -0.3191566565
 H         -7.2145257319        5.7685282833       -1.4791631681
 H         -6.3869736604        3.4658513379       -1.4093094401
 H         -4.9833334924        2.5307476044        0.6989760711
 H         -2.7984469410        3.4020547111        0.0025695251
 H         -1.2002334579        0.1606852514       -1.5978992504
 H          0.3849447117       -1.4118896980       -2.5997960460
 H          1.9290858863       -0.6604221550       -4.3828051511
 H          1.8395851980        1.6810374624       -5.1631732895
 H          0.2439769477        3.2595024164       -4.1665540039
 H          0.9859835248        3.5873174878       -1.6592400720
 H          1.6538616851        5.9149635050       -1.3027520252
 H         -0.0338033366        7.7218242445       -1.3561623629
 H         -2.3963684458        7.1657287495       -1.8153193659
 H         -3.0626655603        4.8430847072       -2.2335587850
 H         -3.0063205551        1.0672542677       -3.5750014862
 H         -5.2191452691        0.2323982446       -2.8985981422
 H         -3.6549521729       -2.7967596597       -1.9517994282
 H         -1.8385864701       -4.3623475804       -2.1036345990
 H         -0.0901593154       -4.9329799771       -1.1952741657
 H          1.9637042890       -6.1735185238       -0.9479463314
 H          0.9784042383      -10.1134539331       -1.7652241085
 H          1.4762239114      -12.4690812952       -2.2473412071
 H          3.3257047619      -13.6161437590       -1.0811945783
 H          4.6728610400      -12.3827523098        0.5819633394
 H          4.1556099489      -10.0349729700        1.0968665309
 H          4.6963761145       -8.1493219165       -1.0455775812
 H          6.0923159520       -6.1999404352       -0.5227266758
 H          7.4710305812       -4.7239657655        0.6282497228
 H          8.2763129060       -2.4190081375        0.5027579611
 H          7.9146294109       -0.0005494968        0.7133723603
 H          4.9473421721        0.7043927696        0.8781434419
 H         10.0221751220        3.6809162604        0.1895927134
 H         11.7746717747        5.4342400274       -0.0597907457
 H         11.0918903625        7.7990342375       -0.2523859446
 H          8.7592297143        8.4258445381       -0.2073354146
 H          6.8612079686        8.8823513199       -0.1678606339
 H          4.5063969207        9.4433560997       -0.1523928346
 H          2.7951728310        7.6699024603        0.0335686054
 H          3.4889711627        5.3235934170        0.2205528677
 H          3.8696047056        3.9804842395        2.5115289504
 H          1.5411094273        3.2936325127        2.9203603664
 H         -1.7235486045        1.1147192489        3.2637768361
 H         -3.3511134005        2.6773286540        4.2277461413
 H         -3.3808210337        5.0431820824        3.5193129094
 H         -1.7428965381        5.8341077086        1.8408589938
 H         -0.1316370732        4.2722883194        0.8589086684
 H          1.7472557240       -0.3759004507        1.4640834205
 H          1.1589571466       -2.7224216498        1.0710714930
 H         -1.1871388833       -3.3597716094        0.6122294050
 H         -2.9186416736       -1.6139644134        0.4932190836
 H         -2.3289655405        0.7464261447        0.8100428744
 H          1.5293123731        1.1333409258       -0.7710403485
 H          3.8452000016        1.8534142824       -1.1939353195
 H          4.4338272269       -1.0204784929        1.7590405270
 H          3.6224413100       -3.2906571415        1.8218380905
 H          3.5252206527       -5.2442576180        2.7605891198
 H          2.0782735936       -7.1333631439        2.1689891669
 H         -0.2300172168       -9.5949114268        0.3943993814
 H         -2.3100588706       -8.3646102217        0.1168249959
 H         -3.7692624553       -6.9189767308        0.7529205873
 H         -5.6251475102       -5.3568284946        0.8811699239
