176
 energy: -269.884956033602 gnorm: 0.000072056329 xtb: 6.7.1 (edcfbbe)
C           -8.90783749630076        0.09623741298289        2.73172968560461
C           -9.77515212736758       -0.43223003868329        1.85225892289996
C          -11.04939704297793       -0.94699743895062        2.25010470562842
N          -11.50269006986515       -0.99750855030019        3.48364999782732
C          -12.74747802114763       -1.52502166879107        3.40362469062335
C          -13.66606537106185       -1.76845150140342        4.46339481531128
C          -13.33904530423276       -1.46148658941233        5.78813914763167
C          -14.24519510301312       -1.68060726390073        6.79533055857037
C          -15.49653041375821       -2.20964343212461        6.48597116248934
C          -15.82725827072416       -2.51919821812619        5.18734161541704
C          -14.92646784409539       -2.31606143760857        4.13070166584105
C          -15.23904377750609       -2.65724131941064        2.75316324990067
C          -16.45894532544436       -3.24974572396688        2.39808394727995
C          -16.74737162953861       -3.60563534689764        1.10169673140867
C          -15.81168104387513       -3.39509348782599        0.09369940768245
C          -14.60669721552681       -2.81187742588378        0.39737611611078
C          -14.30289530329147       -2.42023974253273        1.70933642044312
C          -13.07248710598287       -1.80906082844505        2.07486925000236
N          -11.97294409750623       -1.43394753036958        1.34411340084667
C          -11.81520316351286       -1.38940933925349       -0.05463906324715
C          -12.57647479804341       -0.50340883895517       -0.81237711521700
C          -12.39559401926135       -0.42517496570342       -2.17609122078114
C          -11.44399494334597       -1.22624662686080       -2.81288518442465
N          -11.25462870661556       -1.14186396483700       -4.19065460146591
C           -9.96875911917542       -1.28010916255654       -4.73111744569799
C           -8.86419693144394       -0.74214660320181       -4.07168983932442
C           -7.59858395118816       -0.88223756468550       -4.60696231171705
C           -7.41463741092973       -1.54921659514206       -5.80703112278512
C           -8.50974825627799       -2.07967423502876       -6.46896886504500
C           -9.77843857581511       -1.95249214262913       -5.93727117437495
C          -12.34601374957662       -0.90749929400469       -5.03815606145829
C          -12.20656876869471       -0.09168339546237       -6.15990626098419
C          -13.28352303018075        0.12971059657823       -6.99626974308706
C          -14.51307380479965       -0.44798820396889       -6.72559580345702
C          -14.65730433913084       -1.25658498442025       -5.61017959725980
C          -13.58415061345405       -1.49132341363628       -4.77280731918824
C          -10.68317031603373       -2.11072624453005       -2.04519739018061
C          -10.86457288080178       -2.18926236959892       -0.67996320364051
C           -7.61045375909868        0.65057642718690        2.41423790828032
C           -6.93684686839121        0.37641455964644        1.21991951912269
C           -5.70562706993063        0.93687677404004        0.95607006835858
C           -5.10741384231517        1.81206665159801        1.86186416540270
C           -3.81802610232705        2.44457216858485        1.56010230742803
C           -3.62941919737595        3.80544818859113        1.79666123666912
C           -2.43309824995496        4.41909920405188        1.49401118289065
C           -1.37846456284750        3.68255118412122        0.95445736319273
N           -0.16951417903037        4.31135761558719        0.63331401583529
C           -0.19531549014928        5.59091791756134        0.06561203297304
C           -1.18217799692868        5.92586163764409       -0.86152937567079
C           -1.21464188162040        7.18937725677839       -1.41821526577794
C           -0.26425032318071        8.13476797793450       -1.06911223360442
C            0.71897209363738        7.80675968532284       -0.15001817792589
C            0.75472611814712        6.54874547054501        0.41911948269409
C            1.04814299590175        3.69220653489066        0.92049316102621
C            1.19116684065838        2.88776165049639        2.05189621606864
C            2.41033210802432        2.32116306565615        2.35683690013251
C            3.52653825543029        2.52944076249463        1.54700614880879
C            4.83800347112794        1.98114425519441        1.90602958213417
C            5.26395523070343        1.97250499078652        3.23476294112348
C            6.51438872863730        1.50476484808871        3.57229358008176
C            7.39660930694979        1.01901420277373        2.60039306497080
C            8.70723173032459        0.57283835198405        3.01074305624657
C            9.69002899136341        0.11626139829802        2.21500784756708
C           10.96721278437110       -0.26613910183395        2.73332395459085
N           11.34914770665391       -0.14943496861666        3.98675065446576
C           12.63221892951357       -0.57996492807830        4.02838158687784
C           13.50421758182399       -0.62560093251645        5.15253337485341
C           13.07924393079459       -0.19802538841636        6.41455334088947
C           13.94119879414629       -0.22258341569979        7.48224796880099
C           15.24601516550060       -0.67496022540385        7.29718898339123
C           15.67328114230766       -1.10203830893735        6.06159854147344
C           14.82054811837413       -1.09885510578389        4.94714123716137
C           15.23617378511673       -1.56786333478949        3.63608903509543
C           16.51560673386521       -2.09574370314911        3.41326849225744
C           16.90447353607266       -2.57287252410016        2.18382783001417
C           16.01482954492760       -2.55657993270504        1.11423669210994
C           14.75397182636525       -2.04235565479672        1.28791439290849
C           14.34633397906794       -1.52802744509649        2.52742204291192
C           13.05485528771866       -0.97987236396668        2.75795383400902
N           11.97596195784569       -0.77146155584402        1.93526309327507
C           11.88454530415303       -0.92844716499098        0.53897776929912
C           12.62372253500019       -0.10663137184122       -0.30770671825364
C           12.51389478294691       -0.24291047305174       -1.67464554535519
C           11.65883050045985       -1.20074817907166       -2.22651722030086
N           11.55157959571943       -1.34200628019291       -3.60843120476158
C           10.31823933863030       -1.67391649454300       -4.18609634265620
C           10.25837616626420       -2.54543904092380       -5.27232092433708
C            9.04030279533781       -2.86416904021377       -5.84081233764691
C            7.86740181148443       -2.32936293210820       -5.33379259548575
C            7.92163803208398       -1.46463029712071       -4.25299121689535
C            9.13552524533661       -1.13282011397921       -3.68358059812467
C           12.67671911931265       -1.16119439413071       -4.42436738466975
C           13.93307447068162       -1.59545940390869       -4.00336220170942
C           15.03833650492968       -1.41391436745116       -4.81169117902676
C           14.90945997686733       -0.80867196046717       -6.05097922799320
C           13.66237128529162       -0.38097578000640       -6.47598817053434
C           12.55253142733498       -0.54957326411725       -5.67091821832879
C           10.91279614700648       -2.01331905505256       -1.36991929634849
C           11.02153922055008       -1.87580906538143       -0.00181364071747
C            6.95621928755538        1.00911838142742        1.27238358879394
C            5.70757784690008        1.48330473157095        0.93465052666639
C            3.36802438212584        3.30691498769090        0.39979876656699
C            2.15333359979886        3.87863603005470        0.08861428473930
C           -1.55448684792481        2.31715846904667        0.73185536240049
C           -2.75985299102420        1.71304808295568        1.02393008894769
C           -5.77156563087718        2.08334369530878        3.05752271577486
C           -6.98891366685052        1.50084862801623        3.33462125078191
H           -9.21485110843072        0.14189562136038        3.76766410190163
H           -9.55484807400350       -0.46880826451746        0.79459901027047
H          -12.36154511101283       -1.04828338588834        5.98238756555336
H          -13.99691096054364       -1.44417659134835        7.81954211895108
H          -16.21572175114335       -2.37958518354870        7.27438692631367
H          -16.80806806047951       -2.92521392346950        4.99652845410696
H          -17.20142816782851       -3.44455807474218        3.15502714591045
H          -17.69904684652045       -4.05955469337190        0.86711691700602
H          -16.03078604023410       -3.69187995201272       -0.92151187353468
H          -13.87559345390779       -2.66222261214576       -0.38174130952546
H          -13.30754816668305        0.12179640392858       -0.32152664022318
H          -12.98296191125953        0.26801233446862       -2.75905870983679
H           -9.00681550198665       -0.20941294673507       -3.14264080168985
H           -6.75158803928336       -0.45858497763687       -4.08772913990944
H           -6.42470495526748       -1.65363349710223       -6.22416354656556
H           -8.37504130591965       -2.60421149780680       -7.40333822556468
H          -10.63034703347079       -2.37384273343064       -6.45050304780703
H          -11.25106516671970        0.36729451214240       -6.36751603883792
H          -13.16316388376062        0.76528723657730       -7.86110233515021
H          -15.35296751812412       -0.26968216905155       -7.37951774750723
H          -15.61074040828063       -1.71574207525420       -5.39444922344866
H          -13.69665249834460       -2.13166314421932       -3.91004618020107
H           -9.95166829410866       -2.74048762473294       -2.52898410176648
H          -10.28026764715628       -2.88097091799501       -0.09097375647358
H           -7.37748646476402       -0.29578954572235        0.49865933192858
H           -5.20398114573606        0.71646760857374        0.02438977646104
H           -4.43974125047333        4.39084343339243        2.20588781696415
H           -2.30373779542398        5.47654133205846        1.67332644455128
H           -1.91967613865616        5.18774810250908       -1.14134084278263
H           -1.98341734663432        7.43450684195013       -2.13630025550971
H           -0.29030807842454        9.12009224380935       -1.50903787950520
H            1.45980715706433        8.53965879431496        0.13408327086201
H            1.51564758947134        6.30074305316333        1.14457251692142
H            0.34132344234571        2.72393921073195        2.69837431589332
H            2.49857295535841        1.70045296474302        3.23635038742998
H            4.61433652583852        2.36555509941632        4.00330200954952
H            6.83101076952489        1.52072219864449        4.60544545196604
H            8.92021532736544        0.62620516443629        4.06996201000434
H            9.56609315367878        0.02899320596652        1.14489917256003
H           12.06309340516341        0.15119415842815        6.51172091178868
H           13.61746349852961        0.10805258136973        8.45818315503924
H           15.93071506953857       -0.69094022378393        8.13305343929186
H           16.69260093491233       -1.44150216178583        5.96665563400394
H           17.22553810435832       -2.14186886630821        4.22324878441060
H           17.89963551034843       -2.97135093864723        2.05106347444515
H           16.31328242735938       -2.94947422633949        0.15332990513605
H           14.05981088720461       -2.04452859075813        0.46221055441798
H           13.28316418286288        0.63625471367339        0.11603246178643
H           13.08498079547346        0.39927112970149       -2.32800511340675
H           11.17123035514299       -2.97042576554018       -5.66319474616301
H            9.00680966313076       -3.54232076409793       -6.68064746104146
H            6.91744809691045       -2.58414863146323       -5.77822164705010
H            7.01268334705178       -1.03804032482765       -3.85516117627727
H            9.17713959539668       -0.44832446371420       -2.84878708714020
H           14.03496193675598       -2.07897954408942       -3.04270925395915
H           16.00573053853816       -1.75585982201589       -4.47459161571688
H           15.77478460158813       -0.67187472726491       -6.68131895573497
H           13.55317979607675        0.09564007397748       -7.43894749933853
H           11.58241090485157       -0.20736653390707       -6.00034329203537
H           10.25262927812706       -2.75971405807317       -1.78545140690423
H           10.44949337679805       -2.51194277377004        0.65746829881630
H            7.60098183328246        0.62718151254795        0.49510435262654
H            5.38811607502210        1.45495779601376       -0.09739607864049
H            4.21652248074735        3.48635671090201       -0.24397633363701
H            2.05230604886333        4.48475306527187       -0.79992584600532
H           -0.74024196337387        1.73789100975057        0.32104079777560
H           -2.88134930963346        0.65423116990981        0.84709241445681
H           -5.31146850187834        2.73991691797858        3.78197090607557
H           -7.48551420883089        1.71316927796791        4.27058705527158
