176
 energy: -269.831158517567 gnorm: 0.000078823687 xtb: 6.7.1 (edcfbbe)
C           -6.02612102094612       -2.55437468867117       -0.36220126549516
C           -5.73511239438860       -1.21598714310202       -0.70142007937527
C           -6.63711358627055       -0.18567853571818       -0.53938630359101
N           -7.89139476648210       -0.29512400963336       -0.07025752275775
C           -8.38263546933477        0.94130846799154       -0.01823584204139
C           -9.67222184877571        1.34772363123646        0.43483336990819
C          -10.58835800433825        0.40792775668567        0.91492324627147
C          -11.81851121871399        0.80916989043166        1.37812624359898
C          -12.14043131665413        2.16341057394897        1.36926212404615
C          -11.24694380732585        3.09723088861268        0.89306960485621
C           -9.98723262688780        2.72579497917983        0.40243312453500
C           -9.03804363182212        3.68401386173008       -0.13963692633513
C           -9.35110213332008        5.04210078017007       -0.26076699763175
C           -8.47510039456927        5.94967530261426       -0.81303563013257
C           -7.23748155922357        5.52512207259282       -1.29089577128907
C           -6.88553752810566        4.20430810133488       -1.18545516658506
C           -7.75321008009837        3.26378043127714       -0.59900202160692
C           -7.43489513745454        1.89276610827454       -0.47271207115890
N           -6.32466306749793        1.16645501227751       -0.80657437080337
C           -5.04542370923690        1.60664063670161       -1.17105375778260
C           -4.31831214341631        2.45602383858862       -0.33713276191759
C           -3.03965066127195        2.84244154596516       -0.67952450010761
C           -2.45021262802513        2.37758925349573       -1.85780205787085
N           -1.14756969425485        2.74478979249239       -2.20739366901118
C           -0.30936395944279        1.78654156398042       -2.79547788064432
C           -0.34541920087223        0.46390953039588       -2.35327806225307
C            0.49523575177941       -0.48117483231139       -2.90939598464787
C            1.38248572360538       -0.12657676476676       -3.91249376658211
C            1.41060385916358        1.18210583835204       -4.36668275077523
C            0.57013240138466        2.13300466943036       -3.82051007817127
C           -0.70121849685310        4.05367807597013       -2.01004242318455
C            0.64881110090380        4.31642854810209       -1.77154078713687
C            1.08789766929632        5.61455468968278       -1.59765999670742
C            0.19314503490471        6.67112793633281       -1.63329196229906
C           -1.14919873044263        6.41655329678727       -1.85996981149941
C           -1.59483821902095        5.12431731765441       -2.05707232470368
C           -3.18324100856272        1.52894995362665       -2.68959116856914
C           -4.46403257821055        1.14866448514845       -2.35191220701927
C           -5.12749887071188       -3.61009760755214       -0.45657814510150
C           -3.83444152852745       -3.49261938913044       -1.04989325535173
C           -2.92236582985503       -4.49753098683539       -0.97388343371893
C           -3.19146573587203       -5.70980280312291       -0.29059630777027
C           -2.12875785420921       -6.63774789652591       -0.00461652314007
C           -0.90354328055764       -6.58722377712426       -0.70113486776427
C            0.19895770364199       -7.26715014732027       -0.25692359639670
C            0.13535772112444       -8.06333987007512        0.89258711122504
N            1.33265623356609       -8.53780184458010        1.44569085060954
C            1.46571139135250       -9.82844156343768        1.93499675541813
C            0.68382656982285      -10.85970416980116        1.40925537862755
C            0.80877146424714      -12.14461712177736        1.89750292847090
C            1.71525959097350      -12.42864092507053        2.90648722461142
C            2.49534290503511      -11.40977173047198        3.42940061255455
C            2.37311938729566      -10.11870994143626        2.95606562744258
C            2.33871800026275       -7.56817794568229        1.55971510721835
C            3.67391514287904       -7.82197955959577        1.24904550960154
C            4.59281185543290       -6.78992150805707        1.23513371010680
C            4.21571156264651       -5.48136405826256        1.53767833991230
C            5.10129169307209       -4.32458314908229        1.38036138767257
C            6.02435077288481       -4.25024145658610        0.33647614195291
C            6.69147413436443       -3.07352424722678        0.06261308448763
C            6.43907484390070       -1.91790407765794        0.80448603363740
C            6.96366096547904       -0.63129959210346        0.38531588266639
C            6.25281627537506        0.49569594598863        0.54352664733849
C            6.65979964729584        1.80262800309204        0.12720341869027
N            7.87168613146052        2.17890128028177       -0.20886562027003
C            7.79249595943198        3.50973789413505       -0.45256751624256
C            8.84370721413395        4.38835779147570       -0.83756165496837
C           10.14807108970974        3.91717942855545       -1.01949909716005
C           11.15232564172359        4.77874614255283       -1.38347518820282
C           10.86110844079382        6.12862293843301       -1.56991185919187
C            9.58211465989530        6.60265890515498       -1.39410798080899
C            8.52800237611385        5.75366214399554       -1.02342425589483
C            7.16615775655113        6.22355353793148       -0.83586973680160
C            6.82048424189648        7.57054253465160       -1.01364263584419
C            5.53397807390109        8.02296674952785       -0.84018499234940
C            4.52195955015188        7.13544042738600       -0.48862726230057
C            4.81649335303261        5.80629935370665       -0.31001440698348
C            6.12568155332849        5.32818622732419       -0.46423064653010
C            6.48509734480841        3.96726170135515       -0.26262690201554
N            5.76470347636288        2.85913856110628        0.10647469147184
C            4.39168227757398        2.69036843056479        0.37810999501247
C            3.81157023358787        3.21768287346074        1.52821728246225
C            2.49840231509550        2.92794699277119        1.83703346422127
C            1.74044914877247        2.08980483934136        1.01547333458645
N            0.43587976463947        1.73826349451643        1.36919947165759
C           -0.39426161724737        2.69499084558965        1.97115321517248
C           -1.26964143773008        2.34514594362044        2.99853216770885
C           -2.10502837588786        3.29511481012896        3.55384697563840
C           -2.07539073115656        4.60641679403533        3.10729995834988
C           -1.19102465630193        4.96434495708692        2.10307011882589
C           -0.35583089114491        4.01997877848268        1.53750840597863
C           -0.01222082723278        0.42346942104329        1.18940943822407
C            0.87956229541186       -0.64802655362358        1.24574375415971
C            0.42835074514445       -1.94263713937547        1.07421516707302
C           -0.91691200709350       -2.20014625210679        0.87237551091164
C           -1.80899291802519       -1.14187870695915        0.82003602005828
C           -1.36414389806768        0.15873076977900        0.96215269033262
C            2.31962245685470        1.59029949866089       -0.15324695539571
C            3.62928063385698        1.88717685531976       -0.46653952121637
C            5.59713568778539       -2.02459819823039        1.91523592630587
C            4.95028234129768       -3.20424402654445        2.20151519436096
C            2.89061072417725       -5.25444074604893        1.91716398763384
C            1.96944142934019       -6.27301165265411        1.92986489112513
C           -1.10717768754223       -8.25286008395922        1.50273669431620
C           -2.20636713067620       -7.55231714338001        1.06490333081174
C           -4.51736521053175       -5.88308835510747        0.18044329778202
C           -5.44558855115668       -4.89220200772942        0.08744360268019
H           -7.00726363025673       -2.73853872308834        0.05034840746797
H           -4.75142323248054       -0.96032949708213       -1.06312733045395
H          -10.29273735783475       -0.62960181395698        0.91082197516842
H          -12.52894396878520        0.08592184664382        1.74982578662021
H          -13.10247029933079        2.48800893255899        1.73901766945236
H          -11.54137285161376        4.13463194044502        0.90921039191848
H          -10.30935510789240        5.40400686581294        0.07558303704510
H           -8.75429778968150        6.99015577676464       -0.88808614750938
H           -6.56030884489050        6.23261040262657       -1.74629472484160
H           -5.93516659892420        3.87312475788422       -1.57323312390610
H           -4.76044396739701        2.80445041682442        0.58491046544887
H           -2.48211093246652        3.49627247819732       -0.02506604935120
H           -1.02536618590044        0.18352065342358       -1.56285322212518
H            0.46319929326749       -1.49683938163150       -2.54319946955431
H            2.04397706846837       -0.86466760486470       -4.33963670109185
H            2.08823824897238        1.46507590288256       -5.15858418244640
H            0.58918358327448        3.14907691035631       -4.18614726475682
H            1.35308504851958        3.49907767670007       -1.71942027639038
H            2.13819111475100        5.79740869265094       -1.42952758895348
H            0.53922238894466        7.68362192756861       -1.49137820696132
H           -1.85565736731373        7.23269471368471       -1.89810426805858
H           -2.63959663932371        4.93919815404972       -2.25820025412018
H           -2.74140445696282        1.17677312764107       -3.60983765140175
H           -5.03297217908401        0.50950447698817       -3.01069637422614
H           -3.56842035935262       -2.58413659590667       -1.56822663468128
H           -1.94874054646793       -4.33819367912472       -1.41178078212140
H           -0.81930310245323       -6.00171068474511       -1.60289403318240
H            1.14084557759767       -7.17756960688379       -0.77917934776401
H           -0.01186919065287      -10.64319540196527        0.61190971951614
H            0.19892903325808      -12.93289481465381        1.48124324167704
H            1.81224983414716      -13.43542981147331        3.28289804612094
H            3.19952702747174      -11.62037589918596        4.22089350291812
H            2.96843485723204       -9.32428518803563        3.38145041978269
H            3.97838587288981       -8.82452133804477        0.98564949921976
H            5.61958536527295       -7.00337965218768        0.97678096283551
H            6.18148988816255       -5.11052336644437       -0.29771093996619
H            7.37397288404660       -3.02504488516692       -0.77376291379157
H            7.90956618966356       -0.60027982948686       -0.13491610558540
H            5.27283515806730        0.44586743752335        1.00019527728539
H           10.32956162828532        2.86533870479752       -0.86238349686023
H           12.16099677642564        4.41937064260515       -1.52456910908301
H           11.64826379180526        6.81150358023966       -1.85575746934200
H            9.40536569824540        7.65510213772699       -1.55001762863643
H            7.57678480189680        8.28618596077625       -1.29266041442225
H            5.30767728566048        9.06980226845498       -0.98000866539878
H            3.51169844157284        7.49350128816640       -0.35297931003149
H            4.03184247230891        5.11412762892765       -0.04565541480846
H            4.40206197860867        3.83621431099078        2.18817195360926
H            2.05886123171891        3.32612917764614        2.73932099463895
H           -1.29067324358669        1.32701210008613        3.35809857744742
H           -2.78029915472910        3.00931300209673        4.34676007212418
H           -2.73324813376763        5.34360918632950        3.54153462726611
H           -1.15601598731306        5.98252847346791        1.74433948639120
H            0.32241568449482        4.30301797204825        0.74680742527542
H            1.92795963505922       -0.46570994280466        1.43129625637363
H            1.13450931122737       -2.75916664420145        1.10758657340755
H           -1.27085421355921       -3.21320464432281        0.75966088592551
H           -2.86052111332651       -1.33167020803544        0.66261802867913
H           -2.06614054896582        0.97709554791909        0.89800486206972
H            1.74026455169536        0.95626555603219       -0.80758274060401
H            4.07476905717870        1.48751078227015       -1.36575161304256
H            5.45481477588508       -1.16846788947576        2.55822427291982
H            4.31232886374431       -3.26092133945114        3.07146351011346
H            2.57101849989487       -4.25611448066754        2.17370561854916
H            0.94512788945392       -6.07169425018965        2.20704726182668
H           -1.18240319831734       -8.90220230991837        2.36322322988985
H           -3.13195711866661       -7.65843448472477        1.60877953334514
H           -4.80250200762939       -6.83012465267808        0.61442269507442
H           -6.44642625311727       -5.04968129474485        0.46346211524011
