  141
       -221.39765444
 C         -6.9645185134        0.3886403592       -3.0207020454
 C         -5.7827679760       -0.4728143875       -3.4979023697
 C         -5.9547341571       -0.8326331218       -4.9859850102
 C         -4.5103227742        0.3271767204       -3.3275306323
 C         -4.3697673381        1.5266485578       -4.0101978196
 C         -3.2425776283        2.3160140728       -3.8828108937
 C         -2.2417446072        1.9253527628       -3.0097846477
 C         -2.3619387930        0.7466643915       -2.3089731433
 C         -3.4696544268       -0.0932585924       -2.4872192380
 N         -3.5295891482       -1.3113642501       -1.8295151484
 C         -2.4165371538       -1.7343615434       -1.0596106991
 C         -1.1665879546       -1.8992516642       -1.6609307698
 C         -0.0737251401       -2.2409681510       -0.8989433128
 C         -0.1553278399       -2.4703984807        0.4893008024
 C         -1.4598608867       -2.4351444770        1.0423151506
 C         -2.5580459119       -2.0234506843        0.2962895297
 O         -1.7606575149       -2.7868274151        2.3230272922
 C         -0.7995998917       -3.1787670041        3.2011595184
 C         -1.2183376205       -3.6233961100        4.4501099260
 C         -0.2713792353       -4.0008444195        5.3904308794
 C          1.0813664650       -3.9277213364        5.1028397031
 C          1.4889730653       -3.4856909806        3.8469339002
 C          0.5580413725       -3.1223749172        2.8625115369
 B          1.0091784186       -2.7130259084        1.4625834283
 C          2.5373855811       -2.5431310267        1.3365306599
 C          3.2208229455       -1.9854644706        0.2483643016
 C          4.5854045914       -1.7451398683        0.2405594260
 C          5.2517661097       -1.0033260390       -0.9226139760
 C          5.2377872039        0.4895937982       -0.6526160893
 C          6.2935772288        1.3094612400       -1.0458659995
 C          6.2249994709        2.6718018190       -0.8282276876
 C          5.0817218613        3.2464000829       -0.2738298074
 C          3.9626758239        2.4549638758        0.0661541369
 C          4.1125289143        1.0739643516       -0.0963376895
 B          2.6892852174        3.1879988015        0.5370866397
 C          1.2433403055        2.7204054681        0.7842115458
 C          0.7264198866        1.4283273981        0.5736971797
 C         -0.5894416552        1.1044177089        0.8037660300
 C         -1.4798739394        2.0777370240        1.2535572101
 N         -2.8418383920        1.7325112094        1.4610429294
 C         -3.8178976989        2.2556539308        0.6354012871
 C         -3.4746069936        3.1898450018       -0.3507633404
 C         -4.4316776595        3.7432074339       -1.1705021790
 C         -5.7574239281        3.3670149090       -1.0381236512
 C         -6.0999108799        2.4274074552       -0.0836706899
 C         -5.1574370019        1.8571437943        0.7599874159
 C         -5.6019061755        0.8200891563        1.7683216138
 C         -6.6524932173        1.4541934007        2.7012980099
 C         -6.2224874816       -0.3691155833        1.0116561504
 C         -4.4498294974        0.3378646963        2.6229552523
 C         -4.6891851556       -0.5799355547        3.6361716067
 C         -3.6917439478       -0.9956134487        4.4977356422
 C         -2.4139052727       -0.4780021498        4.3599045809
 C         -2.1442768495        0.4195564079        3.3524157822
 C         -3.1459040710        0.8267791465        2.4596683182
 C         -1.0179682776        3.3697018915        1.4817400555
 C          0.3156035942        3.6865523680        1.2435829562
 O          0.6273286872        4.9910755713        1.4944920796
 C          1.8576467132        5.5019693953        1.2151412947
 C          2.0450239980        6.8633513885        1.4280194024
 C          3.2743104401        7.4338141661        1.1338383999
 C          4.3092776166        6.6669242432        0.6252508123
 C          4.1131904549        5.3033202096        0.4226977239
 C          2.8884256086        4.6892442557        0.7259521598
 O          5.1480963134        4.5969896069       -0.0977425987
 C          6.6146272260       -1.5996954521       -1.2003696940
 C          7.7935868966       -1.4764543948       -0.4925357700
 C          8.9154526705       -2.1702900562       -0.9271654969
 C          8.8630731494       -2.9742162516       -2.0548713418
 C          7.6973834849       -3.0694176428       -2.7971605322
 C          6.5802266393       -2.3698031577       -2.3731229366
 C          5.2883364703       -2.1813931087       -3.0112059296
 C          4.8039268661       -2.6428711703       -4.2239321914
 C          3.5661667874       -2.1971100906       -4.6583882626
 C          2.8442522162       -1.2804453140       -3.9101476656
 C          3.3236673353       -0.8198705506       -2.6905907045
 C          4.5307188585       -1.3009701341       -2.2267900588
 C          5.3255047390       -2.1335104628        1.3559128365
 C          4.7018671062       -2.7127240777        2.4427079461
 C          3.3210911766       -2.8930536556        2.4564811712
 O          2.8237029265       -3.4134543617        3.6154009802
 C         -4.6225975530       -2.1507462084       -1.9642864083
 C         -4.6051473573       -3.4246686475       -1.3786400508
 C         -5.6985278039       -4.2582158978       -1.4531825936
 C         -6.8369503350       -3.8476570387       -2.1267561375
 C         -6.8379727502       -2.6179601023       -2.7578728289
 C         -5.7469743150       -1.7614588982       -2.7064737714
 H         -7.0416646224        1.2942827480       -3.6143425515
 H         -6.8109757468        0.6714321433       -1.9832734630
 H         -7.9001066766       -0.1564164911       -3.1036437513
 H         -6.8716930593       -1.3921761879       -5.1444009689
 H         -5.9910056896        0.0628441251       -5.5986831658
 H         -5.1179188636       -1.4435332099       -5.3186585844
 H         -5.1591576441        1.8578459744       -4.6661881399
 H         -3.1555691376        3.2326721315       -4.4457391892
 H         -1.3657675086        2.5404724817       -2.8689453249
 H         -1.5844943142        0.4735800452       -1.6164439675
 H         -1.0678516986       -1.7464734914       -2.7257481977
 H          0.8792099695       -2.3582658190       -1.3883811586
 H         -3.5152883437       -1.9444217260        0.7871642307
 H         -2.2728827812       -3.6687605889        4.6694587132
 H         -0.5923824583       -4.3483087391        6.3603976808
 H          1.8241487374       -4.2066308837        5.8333645724
 H          2.6355851558       -1.7180916536       -0.6130863915
 H          7.1690587632        0.8876897123       -1.5140977494
 H          7.0493997238        3.3158567273       -1.0942989814
 H          3.3136959656        0.4376941169        0.2421961533
 H          1.3804649486        0.6543346061        0.2117530892
 H         -0.9417593840        0.0983203585        0.6433723849
 H         -2.4450556277        3.4790046416       -0.4715461560
 H         -4.1423360853        4.4679852147       -1.9154380984
 H         -6.5168312413        3.7958051443       -1.6736863163
 H         -7.1351431970        2.1366648340        0.0059386444
 H         -7.0286729637        0.7242173739        3.4113316776
 H         -6.2058948962        2.2764325402        3.2567405365
 H         -7.4931697742        1.8408947321        2.1332084480
 H         -6.4614757153       -1.1790969557        1.6945802537
 H         -5.5281449851       -0.7424431975        0.2633714361
 H         -7.1373544705       -0.0699390375        0.5083388351
 H         -5.6833840055       -0.9788698340        3.7663915775
 H         -3.9146173599       -1.7038157086        5.2806289695
 H         -1.6274700413       -0.7775138538        5.0352198636
 H         -1.1503618678        0.8241759040        3.2549528877
 H         -1.6840059098        4.1388318579        1.8417990748
 H          1.2322225020        7.4575589222        1.8149397792
 H          3.4237613767        8.4897474568        1.2977739487
 H          5.2638716418        7.1064941174        0.3830662647
 H          7.8638759006       -0.8263831411        0.3676304399
 H          9.8430049377       -2.0766903215       -0.3812426014
 H          9.7456734775       -3.5117471144       -2.3693675654
 H          7.6656753112       -3.6670312709       -3.6960423031
 H          5.3834511091       -3.3265984467       -4.8260818828
 H          3.1705057286       -2.5471690070       -5.6008750801
 H          1.8985802971       -0.9130425029       -4.2827195778
 H          2.7680618989       -0.0763266567       -2.1387652403
 H          6.3907475857       -1.9896083014        1.3895321953
 H          5.2718003557       -3.0111942446        3.3094707104
 H         -3.7188475052       -3.7644770000       -0.8704764734
 H         -5.6590609335       -5.2321777624       -0.9895549570
 H         -7.7041510018       -4.4873154691       -2.1816133447
 H         -7.7150064609       -2.3251202910       -3.3133994665
