34
 energy: -61.948600257222 gnorm: 0.000038986558 xtb: 6.7.1 (edcfbbe)
Br           6.64553986603155        0.41711061259645        0.00107947867957
C            4.75781163222968        0.70559372299044       -0.00152835139239
C            4.26875284875345        2.00086561891186       -0.00313631689640
C            2.90014509258384        2.20882780302518       -0.00483235317887
C            2.00421443320472        1.14182103231317       -0.00477734235947
N            0.68849111327354        1.28915551795973       -0.00592671631778
C           -0.16319732472788        0.27681179419764       -0.00498706775347
C           -1.57445766577309        0.47700884221406       -0.00533160610607
C           -2.07422177933305        1.79247781340195       -0.00811104167358
C           -3.42124477352986        2.03779227164547       -0.00808644338019
C           -4.29567401497942        0.95015934585332       -0.00496707070849
Br          -6.18209495236436        1.27863035171513       -0.00441813256547
C           -3.84260444688851       -0.34664152911596       -0.00237502903874
C           -2.46778283790988       -0.62174946901161       -0.00266940187133
C           -1.94271857314412       -1.96730813463860       -0.00060950938645
C           -2.76013241790749       -3.10798494336682        0.00220269175012
C           -2.22461824210359       -4.37406562137501        0.00351306647517
C           -0.84103363012474       -4.55652001484873        0.00194435857392
C           -0.01206251208175       -3.46501445644228       -0.00046720127599
C           -0.54173530435121       -2.16226801655106       -0.00157634808721
C            0.35931267952545       -1.05411214685547       -0.00323552778165
N            1.66910803374595       -1.21787414133181       -0.00273365700251
C            2.53578468060137       -0.21385064742778       -0.00309217084482
C            3.91413415746334       -0.39468055865384       -0.00158052444276
H            4.94547624056354        2.84026283764319       -0.00302887763171
H            2.49936782345135        3.20993539093338       -0.00606137307953
H           -1.36483157038926        2.60552816837702       -0.01032885091538
H           -3.80394352972166        3.04626475054007       -0.01035701775629
H           -4.56154645127112       -1.14867747736504       -0.00014907721001
H           -3.83256229919930       -3.00313026514657        0.00342290589694
H           -2.87905493421406       -5.23269105695289        0.00572278280461
H           -0.42633832116354       -5.55312131763351        0.00273573015713
H            1.06179553675900       -3.57399533850177       -0.00152022111724
H            4.30536604506011       -1.39957623186867       -0.00030176252445
