34
 energy: -61.999980857009 gnorm: 0.000019525443 xtb: 6.7.1 (edcfbbe)
Br           6.75010591298772       -1.32334693465320       -0.00001949537065
C            5.03911141977268       -0.47516094955657       -0.00001649193687
C            4.99598718437747        0.93219806833893       -0.00001884476063
C            3.79160652873542        1.57371955954953       -0.00001607815828
C            2.59149380496418        0.82853471129595       -0.00001097136749
N            1.40965540253684        1.46093600645434       -0.00000818573008
C            0.31168020171892        0.72789027928738       -0.00000297121707
C           -0.97361740636335        1.39014037505136       -0.00000005520535
C           -1.02476592418326        2.78801015423943       -0.00000336490153
C           -2.22675141003325        3.45524433212338        0.00000155407283
C           -3.39534691937045        2.70302196384246        0.00001054882565
Br          -5.08291302194432        3.60656233833949        0.00001054724384
C           -3.37698436792704        1.32583197653072        0.00001082510696
C           -2.16184872349182        0.63134030035788        0.00000568340679
C           -2.10160205757723       -0.82447290874540        0.00000830141558
C           -3.24898776883256       -1.62623874920951        0.00001545116892
C           -3.16372612119873       -3.00235931099592        0.00001802723149
C           -1.92430294593875       -3.63247358604194        0.00001296500742
C           -0.77863402438095       -2.87031461317410        0.00000654130254
C           -0.84982336123870       -1.47370967217574        0.00000458485717
C            0.37265725634526       -0.70106872751500       -0.00000072428609
N            1.53148968465734       -1.33322105576180       -0.00000344473579
C            2.65241321181488       -0.59699624291643       -0.00000853954293
C            3.90851375751332       -1.24035113452978       -0.00001142722327
H            5.92023864699321        1.48918556601818       -0.00002213511558
H            3.72721872961419        2.65043205177534       -0.00001795412397
H           -0.09205919928651        3.32919898798314       -0.00000554222372
H           -2.26720786022889        4.53311642836140        0.00000060351344
H           -4.31491504184590        0.79643416836337        0.00001494243743
H           -4.22774264140384       -1.17562709266955        0.00001759366262
H           -4.06811737644038       -3.59234291674334        0.00002107675883
H           -1.86232354084707       -4.71001472572432        0.00001427240405
H            0.19932045475145       -3.32556076003612        0.00000396336963
H            3.94017651576233       -2.31853688745484       -0.00000925588416
