57
 energy: -92.121708812967 gnorm: 0.000046767301 xtb: 6.7.1 (edcfbbe)
C           -6.68864899114900       -1.99960616421724        1.23506735871683
C           -5.82178531533234       -1.85014471369232        2.30570486098171
C           -4.53024026406560       -1.40512296896505        2.09489494748315
C           -4.09649465138016       -1.08786795835515        0.80929294460357
C           -2.71761011186708       -0.62715767772416        0.60519101506740
N           -1.78440976750831       -1.24047131343454        1.29618112475998
C           -0.49485338666326       -0.93538104511020        1.06045216062378
C            0.53233449426567       -1.56895895274101        1.78898238454718
C            1.83843574375873       -1.31138666744792        1.48539972929446
C            2.17932173308164       -0.41289032399255        0.44863518420612
N            3.54278063658368       -0.17487972778203        0.17271146498517
C            4.35662702859842       -1.21285799252687       -0.28896241304560
C            3.85434193723924       -2.47681183943460       -0.57456358115271
C            4.68740107493467       -3.48504982999342       -1.03625835559264
C            6.03226086719320       -3.24432064273952       -1.23316020102852
C            6.54390194293200       -1.97922659981974       -0.98171560357902
C            5.71714329384244       -0.97121454393679       -0.52126830651229
O            6.29072216827744        0.26267738506181       -0.32197269844327
C            5.47167134180761        1.27873844074163        0.11304447214244
C            6.06173492713864        2.51396648072086        0.30816604461989
C            5.31102217719712        3.58321373789402        0.77490707532862
C            3.97214372535713        3.40075284996856        1.05668558957023
C            3.37558560891872        2.16436224989441        0.85965893479754
C            4.10687825334271        1.08939939409023        0.36956646388528
C            1.19702254794783        0.22988001065495       -0.26687466979743
C           -0.15414779030890       -0.00665045779886        0.03960885400513
N           -1.12206380312340        0.67346912970617       -0.60757291207891
C           -2.37607513022971        0.41613231591724       -0.31972112681530
C           -3.38424818302911        1.26849157606023       -0.96278600651782
C           -4.46826505959650        1.77072241105234       -0.24547140126751
C           -5.39244550177247        2.58865144288233       -0.86817223642703
C           -5.24886432740223        2.91182204049488       -2.20821953482683
C           -4.16373307977298        2.42954652060296       -2.92232255698271
C           -3.23082858790040        1.61955909726412       -2.30233008347615
C           -4.96749359659239       -1.25773461720876       -0.26532090416153
C           -6.25522444343580       -1.71156594329164       -0.04943518705362
H           -7.69806376944043       -2.34629176084327        1.39985029643944
H           -6.15242694350414       -2.08306000196358        3.30726144083533
H           -3.84352528639323       -1.28773588443627        2.91976813264113
H            0.25732554110508       -2.25377403713541        2.57602116408684
H            2.63498864776116       -1.78664214391617        2.03870953104998
H            2.80204363083111       -2.67371176845329       -0.44126562173399
H            4.27029236046877       -4.45836248625665       -1.24441791151573
H            6.68535745804332       -4.02518253826459       -1.58964515972653
H            7.58608407380684       -1.75140766797519       -1.14148479838613
H            7.11392028017056        2.61582540287789        0.09336858285999
H            5.77970017885278        4.54338983871033        0.92222432852191
H            3.37643995368901        4.21725680068086        1.43501656207236
H            2.33126764138814        2.03395746672634        1.09576932961062
H            1.43772910249244        0.92458408825440       -1.05701807616939
H           -4.57619074327871        1.53357982329968        0.80301878688079
H           -6.22767165500808        2.97631733733691       -0.30378081197374
H           -5.97809362619154        3.54407765629764       -2.69270773131594
H           -4.04257747416964        2.68739465518454       -3.96418346946343
H           -2.37857436842901        1.24003857155439       -2.84605928394453
H           -4.62923874725184       -1.04999570220994       -1.27008120636895
H           -6.92268476624398       -1.84234275226959       -0.88838491526043
