57
 energy: -92.065710130956 gnorm: 0.000084056709 xtb: 6.7.1 (edcfbbe)
C           -6.94548922813541        1.74203024915653        1.59696625888294
C           -6.04323941032134        2.73009102329446        1.23625926700087
C           -4.76101561191896        2.39272503389999        0.84775666758606
C           -4.36504488427333        1.05532667013308        0.80137853304001
C           -2.99392484575577        0.72760404827998        0.41032045031293
N           -2.02398448217853        1.51792828149791        0.87246326625430
C           -0.73639650019013        1.23844661141052        0.67574374841115
C            0.28949229952118        2.05696734153530        1.14871142382508
C            1.62007643222697        1.70651647925673        0.97623207374906
C            1.95011479552738        0.53229818423774        0.31596837766285
N            3.31332610181355        0.17146921013115        0.15286802846856
C            3.83373526049516       -0.92080906690731        0.83252516362613
C            3.06213247582023       -1.69638036524178        1.69530117071978
C            3.61436804787168       -2.78218916701155        2.35146308389871
C            4.94698249516176       -3.11080531729932        2.16852746188728
C            5.73645185255899       -2.33788418630366        1.33253911429780
C            5.19137608735627       -1.24922242982839        0.67278441993399
O            6.02973182803449       -0.51422448985946       -0.12166773371022
C            5.50114093554476        0.56120701340535       -0.78374106608227
C            6.35670931348774        1.29167760952580       -1.59127699319556
C            5.87905276056792        2.37751403773793       -2.30691798066245
C            4.53966315147881        2.71954521811387       -2.22359817891359
C            3.67918508971863        1.99619924282035       -1.41710018286777
C            4.14557927530396        0.91619840815709       -0.67061080181245
C            0.95105404295804       -0.30236115691841       -0.19098484360205
C           -0.39016289159802        0.02520729032245       -0.02904122305340
N           -1.37554692527872       -0.72193486721534       -0.53489218826611
C           -2.65692621817680       -0.39010651776517       -0.37788258200626
C           -3.65022628270201       -1.21332470090198       -1.06813128577345
C           -4.74907602331576       -0.64434082771133       -1.71312212173224
C           -5.65613607995709       -1.44444796248963       -2.38035519645506
C           -5.47987051204905       -2.81915329193574       -2.42267329541777
C           -4.37825639306647       -3.38961821571183       -1.80492967518406
C           -3.46606847541988       -2.59500352337150       -1.13760394109003
C           -5.27176265649134        0.06854318628218        1.19006177010267
C           -6.55127314459873        0.41283628012032        1.58045458008838
H           -7.94843732074157        2.00623837756084        1.89804571337729
H           -6.33977342755720        3.76884066721218        1.25843021380497
H           -4.05122141257476        3.15694556162307        0.56719729666665
H            0.02157504543275        2.95841837894433        1.67653127154589
H            2.40126913014018        2.34314726354394        1.36322895504743
H            2.02600910915880       -1.44070450777611        1.84878481129597
H            2.99532091292136       -3.36973309146657        3.01151508319398
H            5.37676943227064       -3.95845209536915        2.67796824692905
H            6.78094823497052       -2.55832007031359        1.17991072155847
H            7.39060370690471        0.98998880026664       -1.64636523631831
H            6.55092980350821        2.94431900559799       -2.93150280499660
H            4.15572955826775        3.55362402747200       -2.79007386341223
H            2.63531831778417        2.26137684907865       -1.36222019372532
H            1.20834281062664       -1.19769754480052       -0.73479550289570
H           -4.88284020393491        0.42760049514927       -1.69872438428598
H           -6.50292582926934       -0.99190716247394       -2.87559203483429
H           -6.19396458557110       -3.44142021021124       -2.94150033444863
H           -4.22878469858578       -4.45901173499544       -1.84395750581817
H           -2.60406903083618       -3.03126978300612       -0.65478130919202
H           -4.96637558188565       -0.96764731250648        1.19592550341140
H           -7.24358094427464       -0.36084682078397        1.87915634158640
