57
 energy: -92.065729048336 gnorm: 0.000088560091 xtb: 6.7.1 (edcfbbe)
C           -6.93981299545269        1.72989202229107        1.64351469866010
C           -6.03076086906271        2.72165035338054        1.31099693787067
C           -4.75000264000886        2.38686326810231        0.91561401362795
C           -4.36216988120597        1.04866231663348        0.83409324364269
C           -2.99228307626162        0.72374931076298        0.43675054703543
N           -2.01914950724720        1.49813347910606        0.91901216603020
C           -0.73274393355614        1.21866990438975        0.71505676273812
C            0.29642035625505        2.02189876375419        1.20689354302555
C            1.62562172611986        1.67205483344612        1.02322189876014
C            1.95137839578527        0.51384698150955        0.33302114747843
N            3.31320584552904        0.15588047495323        0.15453324935784
C            3.83314395851173       -0.96053370291888        0.79438154131304
C            3.06388303807878       -1.76069688512021        1.63658817378067
C            3.61568783167909       -2.86948291801386        2.25351766543608
C            4.94561960336103       -3.19757466532232        2.05112182269679
C            5.73298711278694       -2.40095841961987        1.23572739553371
C            5.18836346366361       -1.28903264361764        0.61558871452615
O            6.02513111016750       -0.53150761755049       -0.15899374820030
C            5.49768259881183        0.56839884700883       -0.78037538735167
C            6.35224923265638        1.32194428089737       -1.56753179143208
C            5.87616791223304        2.43403267724638       -2.24263491450954
C            4.53900326265228        2.77938239268542       -2.13962109463372
C            3.67947848490912        2.03260203230076       -1.35374270122763
C            4.14446207429430        0.92533204647836       -0.64730754513071
C            0.94878215970605       -0.30567233503045       -0.19168354971315
C           -0.39109751986948        0.02153597857251       -0.01894783407976
N           -1.37945534947363       -0.70957880962587       -0.54231620796573
C           -2.65938005613226       -0.37567538466632       -0.37833824249960
C           -3.65567939854164       -1.17675750479922       -1.09014290358023
C           -4.74852720352892       -0.58581154913809       -1.72542192696166
C           -5.65856421854145       -1.36439680203256       -2.41376699926845
C           -5.49135602201708       -2.73895587688249       -2.48644192477527
C           -4.39574897428370       -3.33078421764432       -1.87817885877282
C           -3.48034976179371       -2.55768726863860       -1.19025792255489
C           -5.27581684003532        0.05751377093998        1.19437922132792
C           -6.55389105857953        0.39918249548377        1.59172476926109
H           -7.94163579279798        1.99217292059527        1.94998001651552
H           -6.32095790786066        3.76122948725216        1.36072805979542
H           -4.03466863100450        3.15374520624721        0.65718301612030
H            0.03201066196225        2.91086207447920        1.75718400360170
H            2.40934697727746        2.29665672978067        1.42445277203148
H            2.02997078673591       -1.50568146278864        1.80549028466357
H            2.99849569852117       -3.47560209392425        2.89831268398476
H            5.37480901700642       -4.06345290139777        2.52948431026323
H            6.77551149983317       -2.62048892824323        1.06891044597040
H            7.38417147507416        1.01701326114743       -1.63901221832905
H            6.54719364692122        3.01855656490272       -2.85161805465966
H            4.15603972777238        3.63464214483247       -2.67428638524474
H            2.63722019664114        2.30065281427859       -1.28478151700517
H            1.20198406133022       -1.18769697174203       -0.75867776745846
H           -4.87517834662212        0.48638646739981       -1.68666907292544
H           -6.50048238653931       -0.89507960352596       -2.90165092501063
H           -6.20771654861744       -3.34447040211119       -3.02170808788560
H           -4.25349389871713       -4.40002524714522       -1.94098915613083
H           -2.62274620414470       -3.01046800517990       -0.71485742592392
H           -4.97709528395528       -0.98037368231655        1.17281422466214
H           -7.25152039475179       -0.37792767508424        1.86834907207011
