  101
       -156.61524057
 C         -9.0538455301        7.0532630554       -1.1119787897
 C         -8.7473202256        6.0833294098       -2.0516830656
 C         -7.8259684944        5.0959093429       -1.7575867812
 C         -7.1906192635        5.0626255467       -0.5177324957
 C         -6.2087667444        4.0159280451       -0.2046263533
 C         -6.4120306802        2.6975127007       -0.6087635257
 C         -5.4931148504        1.7115765069       -0.3176215545
 C         -4.3337301734        2.0145506965        0.3971787207
 N         -3.3895388358        1.0339394509        0.6996756191
 C         -2.0193976434        1.3548652986        0.6907256173
 C         -1.4734358145        2.1418306958       -0.3201137038
 C         -0.1118919725        2.3627371884       -0.3690403255
 C          0.7396895919        1.8145275695        0.5875737378
 C          2.1963340609        1.9814528921        0.4927898998
 C          2.9522535159        2.2663765928        1.6380016932
 C          4.3253340912        2.3935322462        1.5966911195
 C          4.9610669738        2.2064115324        0.3771445730
 C          4.2148505427        1.9375310159       -0.7933720258
 C          2.8337602646        1.8309757971       -0.7322506131
 C          5.1631603214        1.8308421757       -1.8664400106
 C          5.0435472742        1.5544344826       -3.2218416122
 C          6.1901184290        1.5020777165       -3.9886623215
 C          7.4441958958        1.7063496610       -3.4169882851
 C          7.5884832318        1.9800574576       -2.0703130046
 C          6.4380355885        2.0564339957       -1.2984180785
 N          6.3011248753        2.2812594034        0.0574080936
 C          7.3451402277        2.5498737074        0.9539485283
 C          7.4592998874        1.8209299069        2.1341174818
 C          8.4873200938        2.0946412161        3.0171415332
 C          9.4118467442        3.0846574217        2.7284439914
 C          9.3024742813        3.8071374568        1.5517985379
 C          8.2719382633        3.5480408323        0.6675122654
 C          0.1800038016        1.0669489057        1.6223724825
 C         -1.1784614816        0.8401750454        1.6764559351
 C         -3.7418248552       -0.3021415209        0.8942153846
 C         -4.9418033982       -0.6708707333        1.5066684501
 C         -5.2407460114       -2.0078811677        1.7041226405
 C         -4.3539618654       -3.0010852815        1.3282913606
 C         -3.1471409520       -2.6408691875        0.7338050687
 C         -2.1344635695       -3.6314163854        0.3686647245
 N         -2.4650054525       -4.9164967505        0.3220526732
 C         -1.4839349193       -5.7530488759       -0.0122350579
 C         -1.8064571089       -7.1770207528       -0.1095340437
 C         -0.8054839194       -8.1070283825       -0.3825692684
 C         -1.1167297542       -9.4494095301       -0.4780887221
 C         -2.4247225103       -9.8743639509       -0.3036544773
 C         -3.4241144247       -8.9528144887       -0.0320424586
 C         -3.1196718160       -7.6090987625        0.0656894325
 N         -0.2326376410       -5.3774123520       -0.2626635226
 C          0.0111831068       -4.0719334553       -0.1781980496
 C          1.3708048129       -3.5893060486       -0.4234398601
 C          1.6718667507       -2.2395806259       -0.2428848371
 C          2.9539285029       -1.7797681772       -0.4729413597
 C          3.9428983514       -2.6584759168       -0.8875880989
 C          3.6491810492       -4.0016672158       -1.0665573329
 C          2.3697081072       -4.4689709379       -0.8348966702
 N         -0.9134360057       -3.1668512907        0.1200912349
 C         -2.8600456118       -1.3037050868        0.5003425781
 C         -4.1215689554        3.3342617514        0.7994816924
 C         -5.0444283561        4.3138593377        0.5018625998
 C         -7.5061948599        6.0450644861        0.4188560030
 C         -8.4304728987        7.0296077028        0.1244118212
 H         -9.7748828369        7.8237362969       -1.3420151527
 H         -9.2273803641        6.0983851326       -3.0194083859
 H         -7.5788045601        4.3533994570       -2.5024588997
 H         -7.3101729046        2.4384158256       -1.1498700042
 H         -5.6643058052        0.6988073074       -0.6519172194
 H         -2.1210353682        2.5600869848       -1.0770912406
 H          0.3001408049        2.9680163349       -1.1632103764
 H          2.4381081748        2.4131967790        2.5763746568
 H          4.8838102353        2.6403337106        2.4870705881
 H          2.2641632053        1.6077874471       -1.6220286898
 H          4.0725995480        1.3789784038       -3.6599634531
 H          6.1202383902        1.2911441580       -5.0453577837
 H          8.3245274635        1.6448387111       -4.0397402482
 H          8.5662094947        2.1178881553       -1.6336202964
 H          6.7496469515        1.0348126756        2.3451368967
 H          8.5714722375        1.5259604235        3.9313989549
 H         10.2154486215        3.2928148596        3.4185570331
 H         10.0188543498        4.5827484229        1.3246173001
 H          8.1702364829        4.1235662693       -0.2404815705
 H          0.8223863404        0.6340672546        2.3751595472
 H         -1.5980392066        0.2386458323        2.4695020512
 H         -5.6317870561        0.0928514413        1.8341756436
 H         -6.1750564812       -2.2738072158        2.1766403443
 H         -4.5705641807       -4.0430640263        1.4999691748
 H          0.2063858459       -7.7575197047       -0.5144637049
 H         -0.3397668195      -10.1695685275       -0.6895674138
 H         -2.6655429027      -10.9247885212       -0.3800617658
 H         -4.4428395927       -9.2861828012        0.1024587607
 H         -3.8835111087       -6.8762820678        0.2734488689
 H          0.8919886017       -1.5672755120        0.0804689402
 H          3.1843117356       -0.7340670313       -0.3314271366
 H          4.9432463692       -2.2938829705       -1.0718433820
 H          4.4222193677       -4.6845230824       -1.3880840907
 H          2.1226761059       -5.5103600807       -0.9698110709
 H         -1.9310701938       -1.0563073186        0.0123519498
 H         -3.2244916646        3.5831579704        1.3476571527
 H         -4.8530749464        5.3315327200        0.8095240241
 H         -7.0372716311        6.0228012599        1.3916086595
 H         -8.6673058190        7.7818696418        0.8631692986
