  166
       -249.29665939
 N         11.4789437219       -2.4361366965       -4.0611364669
 C         10.7907872863       -1.9291101392       -3.2858412745
 C          9.9297626721       -1.3416845484       -2.3613650821
 C          8.5544468028       -1.5049449732       -2.4843673373
 C          7.6607632752       -0.9096823599       -1.6132655506
 N          6.2901502394       -1.0967528167       -1.7927998626
 C          5.6645920153       -2.3377355585       -1.8146036075
 C          6.2194124178       -3.6052039750       -1.8897844952
 C          5.3624582754       -4.6923490196       -1.8421750378
 C          3.9866751195       -4.5257369753       -1.7155662939
 C          3.4291589660       -3.2642568226       -1.6104033767
 C          4.2694513247       -2.1613135412       -1.6512370639
 C          4.0470871875       -0.7500584145       -1.5149914798
 C          2.9351978554        0.0120776785       -1.2238475071
 C          3.0621476144        1.3989457252       -1.1137835787
 C          1.9188161761        2.2044446167       -0.6929560012
 C          1.7338602919        3.5145139275       -1.1342211979
 C          0.6274087932        4.2509620448       -0.7550191651
 C         -0.3409316729        3.7094498269        0.0806367740
 C         -1.6355852667        4.4097549421        0.4657637018
 C         -2.7519175846        3.5333628826       -0.0909306669
 C         -3.9460885906        3.2582849158        0.5607603289
 C         -4.9184044660        2.4623165403       -0.0211851691
 C         -4.7106614452        1.9092565564       -1.2778356886
 N         -5.6626553259        1.0762473104       -1.8813802640
 C         -5.3660569284       -0.1112633407       -2.5195892358
 C         -4.1904296310       -0.8488003174       -2.5009475076
 C         -4.1572885608       -2.0224335438       -3.2286945156
 C         -5.2624393864       -2.4579593040       -3.9555791850
 C         -6.4452697709       -1.7449570762       -3.9488944499
 C         -6.5072117780       -0.5693080339       -3.2150769370
 C         -7.5442858707        0.3945755984       -2.9697708690
 C         -8.8646597778        0.4980311139       -3.3806014980
 C         -9.6012710528        1.5929065422       -2.9705643348
 C         -9.0315196080        2.5812588807       -2.1727948278
 C         -7.7177938625        2.5004071006       -1.7513179817
 C         -6.9801987336        1.3935870026       -2.1429199062
 C         -3.5283711803        2.1986899766       -1.9544393197
 C         -2.5753278516        3.0017776887       -1.3686011186
 C         -1.6496500502        4.5749816352        2.0078902669
 C         -2.0672761541        5.9717724706        2.4707795606
 C         -3.3056614486        6.4697203790        1.7343740460
 C         -3.0864399656        6.4765827356        0.2122014761
 C         -1.7785321004        5.7942332973       -0.1890699063
 C         -0.1378875168        2.4126766481        0.5544406696
 C          0.9626249845        1.6756621077        0.1814020999
 C          4.3008646017        1.9992258692       -1.4108714826
 C          5.4239567653        1.2547251994       -1.6935570390
 C          5.3190061092       -0.1322692198       -1.6517863250
 C          8.1737764469       -0.1010200174       -0.5225299107
 N          7.3130263277        0.5204608526        0.3824495550
 C          7.2677122046        1.8927000365        0.6026166592
 C          8.1610314737        2.8790813043        0.2171179215
 C          7.8462070585        4.1937066825        0.5198463850
 C          6.6663615344        4.5226201389        1.1799638882
 C          5.7565257536        3.5454093151        1.5418306025
 C          6.0524270536        2.2223255229        1.2499344591
 C          5.3391560446        0.9908748197        1.4371702073
 C          4.0829858954        0.6862459294        1.9188361932
 C          3.6659647702       -0.6459829962        1.9564043358
 C          2.3206585640       -1.0004550706        2.3999545245
 C          1.6140033462       -0.2109750363        3.3090521191
 C          0.3732830147       -0.5918681520        3.7801838114
 C         -0.2112464764       -1.7923670025        3.3900897359
 C         -1.4984752973       -2.3435358681        3.9800194134
 C         -2.5751723556       -2.3135285489        2.9016345888
 C         -2.7999233703       -1.1295935724        2.2014629310
 C         -3.8600434783       -0.9960275224        1.3252399795
 C         -4.7382663155       -2.0583743911        1.1296395692
 N         -5.8943081295       -1.9162472178        0.3486896569
 C         -6.8704894106       -0.9618464687        0.5597283842
 C         -6.8835284979        0.1065058020        1.4445448005
 C         -8.0148142939        0.9007938974        1.4814046175
 C         -9.1162734939        0.6359911117        0.6721085354
 C         -9.1247306778       -0.4503009261       -0.1802709330
 C         -7.9990205050       -1.2589981029       -0.2380519954
 C         -7.6867199522       -2.4665697545       -0.9499373538
 C         -8.3906739729       -3.2486392731       -1.8539008477
 C         -7.7894281465       -4.3891900425       -2.3490585535
 C         -6.4958528354       -4.7385960286       -1.9702464123
 C         -5.7730043707       -3.9710981638       -1.0772011020
 C         -6.3842690906       -2.8424895382       -0.5507872299
 C         -4.4851097675       -3.2648446802        1.7720456764
 C         -3.4157430832       -3.3882577936        2.6376029736
 C         -1.2391214591       -3.7664533469        4.5123938191
 C         -0.2670382651       -3.7533912092        5.6875030996
 C         -0.8902129566       -2.9922497406        6.8509159890
 C         -1.1867655100       -1.5615025980        6.4201612884
 C         -2.0576894343       -1.5214869795        5.1634511164
 C          0.4446641909       -2.5258051428        2.4006580292
 C          1.6780847705       -2.1459819697        1.9180230004
 C          4.5726503288       -1.6578074674        1.5776019975
 C          5.8193563325       -1.3720713722        1.0707951543
 C          6.1756360345       -0.0349852647        0.9217970847
 C          9.5411362631        0.0590470160       -0.3930481237
 C         10.4433652609       -0.5402881912       -1.2647917255
 C         11.8142080060       -0.3771518745       -1.0765582931
 N         12.9433819872       -0.2147682471       -0.9011125916
 H          8.1730317351       -2.0749771487       -3.3199586634
 H          7.2849481367       -3.7527740254       -1.9726824626
 H          5.7731635351       -5.6885762636       -1.9031283109
 H          3.3494872612       -5.3972085264       -1.6895928336
 H          2.3633123813       -3.1341207731       -1.4963114694
 H          1.9749464517       -0.4619148613       -1.0910001139
 H          2.4433372726        3.9552300634       -1.8182770282
 H          0.5219013142        5.2522006684       -1.1418569496
 H         -4.1444969328        3.6584636848        1.5423700082
 H         -5.8357377523        2.2512664826        0.5064731182
 H         -3.3308103563       -0.5206571627       -1.9354077633
 H         -3.2533127644       -2.6131630692       -3.2359911079
 H         -5.1929815667       -3.3735852500       -4.5228668588
 H         -7.3054390841       -2.0940391277       -4.4985428150
 H         -9.3010695604       -0.2620749702       -4.0107552611
 H        -10.6318396397        1.6917423320       -3.2776335355
 H         -9.6280509882        3.4323391740       -1.8796186771
 H         -7.2808277928        3.2802607201       -1.1468470916
 H         -3.3720162744        1.8027299381       -2.9467164903
 H         -1.6710486097        3.2191552794       -1.9171920220
 H         -2.3061036813        3.8301401969        2.4577330240
 H         -0.6445210823        4.3783229532        2.3888773917
 H         -2.2642984868        5.9453340121        3.5449167900
 H         -1.2471253991        6.6740458010        2.3125342498
 H         -4.1517667915        5.8290414068        1.9867067211
 H         -3.5516208979        7.4736814030        2.0844182446
 H         -3.0637260563        7.5023759055       -0.1601318885
 H         -3.9176159101        5.9711924755       -0.2831838242
 H         -0.9363702416        6.4201790340        0.1079285257
 H         -1.7591745715        5.6896499054       -1.2755639846
 H         -0.8696812226        1.9714467529        1.2162957673
 H          1.0911635122        0.6810918953        0.5812214753
 H          4.3891705444        3.0737529149       -1.3787854828
 H          6.3634051372        1.7377584787       -1.9175404029
 H          9.0713582475        2.6437776791       -0.3119022068
 H          8.5306312087        4.9773527033        0.2328724412
 H          6.4562234891        5.5583446862        1.4013620394
 H          4.8291343432        3.8019792541        2.0310108867
 H          3.4218115239        1.4821337535        2.2242478831
 H          2.0541503941        0.6998781585        3.6858859918
 H         -0.1278756377        0.0663711674        4.4714244129
 H         -2.1345134140       -0.2913572202        2.3511694324
 H         -4.0144476363       -0.0663017882        0.7970304870
 H         -6.0460669714        0.2983531914        2.0988355364
 H         -8.0496919152        1.7399719004        2.1614911890
 H         -9.9799721707        1.2808805847        0.7277833767
 H         -9.9892534557       -0.6719088181       -0.7861679856
 H         -9.3873590794       -2.9670413173       -2.1579503742
 H         -8.3226696698       -5.0177614826       -3.0466353789
 H         -6.0463887108       -5.6284954053       -2.3853338851
 H         -4.7640242054       -4.2393504590       -0.8033488051
 H         -5.1554442711       -4.0979772108        1.6223713152
 H         -3.2684416422       -4.3391410829        3.1223611204
 H         -0.8560072499       -4.4088329491        3.7194113868
 H         -2.1794870536       -4.1892665952        4.8707433315
 H          0.6713759726       -3.2787861034        5.3926228069
 H         -0.0459177984       -4.7799821586        5.9869449233
 H         -0.2150196887       -2.9877919975        7.7085709150
 H         -1.8151891205       -3.4883694392        7.1552850967
 H         -1.7050039567       -1.0293402783        7.2216224138
 H         -0.2374610399       -1.0554563407        6.2448986176
 H         -3.0384095852       -1.9393972235        5.4090310273
 H         -2.2225999249       -0.4869857825        4.8561818311
 H         -0.0195540360       -3.4157525211        2.0008689282
 H          2.1523164958       -2.7387996983        1.1499092582
 H          4.2891537678       -2.6910373450        1.7032627600
 H          6.4980155947       -2.1651486643        0.7933222367
 H          9.9269082212        0.6280205024        0.4412117159
  166
       -249.29503634
 N         11.4329765151       -2.2669935401       -4.1768187492
 C         10.7536578749       -1.7729689772       -3.3855586132
 C          9.9017572327       -1.2078881498       -2.4385658275
 C          8.5291922496       -1.4087753223       -2.5254703963
 C          7.6414345670       -0.8402450814       -1.6297092511
 N          6.2751728389       -1.0840059210       -1.7675110261
 C          5.7114975585       -2.3556212926       -1.7816888617
 C          6.3273489627       -3.5941461068       -1.8625226695
 C          5.5260778245       -4.7226476997       -1.8023406651
 C          4.1458319341       -4.6248660604       -1.6572881640
 C          3.5283158295       -3.3923109355       -1.5445464336
 C          4.3125401989       -2.2494017367       -1.5979907829
 C          4.0229749819       -0.8512911584       -1.4545745551
 C          2.8753517030       -0.1504505539       -1.1534674333
 C          2.9277593340        1.2409278516       -1.0316502467
 C          1.7395069727        1.9777659275       -0.6123403274
 C          1.5006192218        3.2930414666       -1.0131006560
 C          0.3483779382        3.9612708220       -0.6446401107
 C         -0.6207189177        3.3481347510        0.1407973336
 C         -1.9642005398        3.9690363058        0.4982228786
 C         -3.0178044524        3.1268241375       -0.2191585443
 C         -4.2967334314        2.8781406398        0.2625153663
 C         -5.2132186197        2.1365331924       -0.4635910642
 C         -4.8714006437        1.6111211719       -1.7024406580
 N         -5.7661459633        0.8233654657       -2.4349162542
 C         -5.4213300208       -0.3240076507       -3.1231328292
 C         -4.2367620203       -1.0470701672       -3.0981571042
 C         -4.1519626225       -2.1735043329       -3.8938954168
 C         -5.2183181413       -2.5835427708       -4.6893603318
 C         -6.4158626055       -1.8950834170       -4.6809198766
 C         -6.5266122673       -0.7653281177       -3.8840002046
 C         -7.5969579025        0.1544524830       -3.6152719078
 C         -8.9106993555        0.2363495897       -4.0528188569
 C         -9.6943596161        1.2815093523       -3.6029052241
 C         -9.1725153234        2.2482107508       -2.7472870308
 C         -7.8663172427        2.1884132022       -2.2998962473
 C         -7.0845073839        1.1213423716       -2.7191813954
 C         -3.6092734443        1.8932413722       -2.2204487627
 C         -2.7105898943        2.6393751928       -1.4905905020
 C         -2.1141412375        3.9839910604        2.0412978270
 C         -1.8433505697        5.3648202506        2.6290824421
 C         -2.8908627920        6.3733179615        2.1511409126
 C         -3.2554605876        6.1317034258        0.6795117482
 C         -2.1189383387        5.4109411883       -0.0358079887
 C         -0.3745948211        2.0381407932        0.5557940472
 C          0.7759001194        1.3716075543        0.2025920316
 C          4.1342684499        1.9050910727       -1.3312183439
 C          5.2908149215        1.2223131421       -1.6333442839
 C          5.2609556211       -0.1693658450       -1.6043808553
 C          8.1603136809       -0.0132320135       -0.5565407233
 N          7.3080155885        0.5938226825        0.3660433749
 C          7.2388923401        1.9661205485        0.5795159596
 C          8.0975861733        2.9692632014        0.1602443446
 C          7.7638810544        4.2784189820        0.4663518305
 C          6.5989814030        4.5851132873        1.1627213415
 C          5.7225379959        3.5904985217        1.5580173237
 C          6.0375629625        2.2723792998        1.2630407342
 C          5.3582932819        1.0265593081        1.4788335933
 C          4.1250075521        0.6954567267        2.0016429821
 C          3.7410669964       -0.6450260057        2.0531556372
 C          2.4181369769       -1.0259898585        2.5397689735
 C          1.7546545225       -0.2831414923        3.5165014469
 C          0.5349071280       -0.6887596471        4.0206457864
 C         -0.0727781486       -1.8633292095        3.5881052887
 C         -1.3582340139       -2.4171521843        4.1813579540
 C         -2.4687574691       -2.2243594680        3.1559402878
 C         -2.6488217657       -0.9650470148        2.5865833043
 C         -3.7130826934       -0.6944686192        1.7487754025
 C         -4.6419451262       -1.6915668702        1.4645815527
 N         -5.7902380475       -1.4148434278        0.7080182336
 C         -6.7180382499       -0.4398918413        1.0145199837
 C         -6.6976331498        0.5137413626        2.0233933160
 C         -7.7760106111        1.3738967434        2.1189780534
 C         -8.8541430857        1.2895172358        1.2400295005
 C         -8.8972007897        0.3180777593        0.2586239804
 C         -7.8301328913       -0.5625742430        0.1492299743
 C         -7.5681905585       -1.6965212084       -0.6918388681
 C         -8.2967150924       -2.3354783888       -1.6848299263
 C         -7.7498248371       -3.4499972332       -2.2889367800
 C         -6.4837739482       -3.9100181983       -1.9348403766
 C         -5.7392229916       -3.2885610160       -0.9517677761
 C         -6.3012765742       -2.1937822242       -0.3107407573
 C         -4.4434888670       -2.9656347570        1.9824369397
 C         -3.3675293596       -3.2256649301        2.8095710534
 C         -1.1564105541       -3.8961717495        4.5625414334
 C         -0.1222678788       -4.0457298149        5.6738445186
 C         -0.6288311726       -3.3593696949        6.9364072757
 C         -0.8727939605       -1.8828767468        6.6504697945
 C         -1.8204941767       -1.6931739204        5.4657381978
 C          0.5421319688       -2.5490026649        2.5402126662
 C          1.7594453611       -2.1497315523        2.0322546093
 C          4.6536391433       -1.6396624228        1.6464205868
 C          5.8790334718       -1.3283297078        1.1041145211
 C          6.2010323500        0.0160912400        0.9428330581
 C          9.5258825451        0.1822025833       -0.4613080460
 C         10.4220375130       -0.3955178668       -1.3537433866
 C         11.7928178438       -0.2018529829       -1.1965224809
 N         12.9219255334       -0.0134605304       -1.0495085461
 H          8.1420148784       -1.9895008287       -3.3510206328
 H          7.3976955342       -3.6896516449       -1.9581543108
 H          5.9852462910       -5.6971481973       -1.8675020249
 H          3.5530147702       -5.5267378041       -1.6216963004
 H          2.4591220330       -3.3153747255       -1.4146800005
 H          1.9427706475       -0.6771772847       -1.0242642365
 H          2.2049718831        3.7934378141       -1.6602979813
 H          0.2063918795        4.9655093777       -1.0116168994
 H         -4.6187280340        3.2506512593        1.2230647283
 H         -6.1914122398        1.9482183053       -0.0532580566
 H         -3.4097198871       -0.7479339469       -2.4717415407
 H         -3.2376420916       -2.7481658708       -3.8977724315
 H         -5.1085603988       -3.4613350722       -5.3083018668
 H         -7.2508539292       -2.2269616354       -5.2786254721
 H         -9.3067555285       -0.5027564752       -4.7327301191
 H        -10.7217927331        1.3604510778       -3.9259916088
 H         -9.8016711388        3.0655047890       -2.4273376575
 H         -7.4717740295        2.9569965911       -1.6540727265
 H         -3.3452676183        1.5427962889       -3.2067531144
 H         -1.7447637218        2.8508484914       -1.9240168604
 H         -3.1159821420        3.6818836427        2.3409788165
 H         -1.4177450107        3.2696222152        2.4824629192
 H         -1.8624819124        5.3050317244        3.7192023878
 H         -0.8422248163        5.6907973120        2.3420613998
 H         -3.7877953263        6.2916849849        2.7679488287
 H         -2.4989191033        7.3835461988        2.2813202326
 H         -3.4558934720        7.0827529911        0.1834970930
 H         -4.1629237650        5.5309352408        0.6024567427
 H         -1.2023279006        5.9762667823        0.1302999858
 H         -2.3101789289        5.3799313353       -1.1103525324
 H         -1.1146518703        1.5201555810        1.1494096728
 H          0.9342230083        0.3700047127        0.5728355123
 H          4.1700029465        2.9822755137       -1.2906707776
 H          6.1998601091        1.7571770138       -1.8648825935
 H          8.9952336472        2.7503892951       -0.3967887988
 H          8.4214415585        5.0751293562        0.1537049576
 H          6.3739407191        5.6171855159        1.3864573580
 H          4.8065311548        3.8296850167        2.0765268840
 H          3.4526109453        1.4741807591        2.3266654638
 H          2.2157100190        0.6063566594        3.9189429445
 H          0.0683264385       -0.0707711086        4.7710382889
 H         -1.9417003148       -0.1792242148        2.8100742717
 H         -3.8327452566        0.2873119904        1.3132220552
 H         -5.8700416480        0.5788688106        2.7133912680
 H         -7.7837618401        2.1272884404        2.8930280985
 H         -9.6727557386        1.9861502049        1.3408483982
 H         -9.7410307079        0.2385538291       -0.4091916906
 H         -9.2693056429       -1.9659120904       -1.9713836686
 H         -8.3044909042       -3.9720742997       -3.0537256474
 H         -6.0750054132       -4.7720812029       -2.4401423320
 H         -4.7536885003       -3.6436916337       -0.6914126605
 H         -5.1560734645       -3.7463990937        1.7618873457
 H         -3.2582789719       -4.2255711468        3.1959833073
 H         -0.8563831673       -4.4823874794        3.6940607730
 H         -2.1006228831       -4.2986808000        4.9343950088
 H          0.8257622029       -3.6004297546        5.3642250184
 H          0.0513359391       -5.1061933032        5.8683663703
 H          0.0978181248       -3.4651658278        7.7440569192
 H         -1.5593241883       -3.8334321267        7.2587027308
 H         -1.3058130929       -1.3983432960        7.5288843612
 H          0.0884651103       -1.4097642753        6.4484649298
 H         -2.7988863385       -2.1028401097        5.7329589314
 H         -1.9667939421       -0.6296733912        5.2685324909
 H          0.0602222642       -3.4155906298        2.1119485603
 H          2.2063366664       -2.7055291725        1.2209405145
 H          4.3914766986       -2.6777522557        1.7796406646
 H          6.5665050402       -2.1068718164        0.8080163790
 H          9.9168168494        0.7626795393        0.3625469063
