  74
       -115.97168724
 C         -4.4263271265        3.3601683375        1.0545071357
 C         -4.3464785348        2.3506018146       -0.1071066914
 C         -5.2105880967        2.8299944106       -1.2896118599
 C         -4.8814089702        1.0174606910        0.3654483843
 C         -6.1922155652        0.9208343729        0.8103620826
 C         -6.7439086256       -0.2846450221        1.2071493940
 C         -5.9816876315       -1.4420237648        1.1335029756
 C         -4.6795829264       -1.3777721149        0.6963923041
 C         -4.0990524152       -0.1493806563        0.3364241961
 N         -2.7838007277       -0.1183511573       -0.0755747166
 C         -2.0211897231       -1.3058062373       -0.0550370157
 C         -1.6985171008       -1.9205539324        1.1760288346
 C         -0.8548015927       -2.9946178233        1.2001849886
 C         -0.3404954973       -3.5221035616        0.0002437742
 S          1.1794820980       -4.4179520352        0.0574864228
 O          1.2911220485       -5.1920997195        1.2733186056
 O          1.4206509873       -5.1011287991       -1.1940455383
 C          2.1552600579       -2.9325659520        0.1658977471
 C          2.3681062327       -2.3698246716        1.4339853179
 C          2.7644145998       -1.0568615772        1.5705927691
 C          2.9378968398       -0.3017266731        0.4099521187
 C          2.7018155526       -0.8621228973       -0.8803491873
 C          2.3122546806       -2.1801008930       -1.0005496293
 C          2.9043549779        0.1997994408       -1.8264012614
 C          2.8231835980        0.2742968744       -3.2099953926
 C          3.1021956697        1.4858210122       -3.8261469529
 C          3.4725119691        2.6016542462       -3.0850409406
 C          3.5564950966        2.5520446454       -1.6988836511
 C          3.2476389564        1.3518767905       -1.0750984752
 N          3.2629874929        1.0313133200        0.2686170767
 C          3.5647026460        1.9138697736        1.3066361706
 C          4.4924609486        1.5559451307        2.2873964708
 C          4.7903000549        2.4364200824        3.3076375035
 C          4.1727918837        3.6776994305        3.3666420079
 C          3.2464155703        4.0329856421        2.3964137507
 C          2.9385302092        3.1608214863        1.3719655193
 C         -0.7148582827       -2.9467293786       -1.2322985233
 C         -1.5341056250       -1.8550225874       -1.2602555562
 C         -2.1838861162        1.0501466804       -0.4994144224
 C         -0.8205910577        1.0474760026       -0.8459988980
 C         -0.2089872529        2.1886254442       -1.3095353115
 C         -0.9311380734        3.3687835802       -1.4136374444
 C         -2.2583167909        3.3911899013       -1.0221190601
 C         -2.9064493072        2.2548151704       -0.5600377588
 H         -3.8112089417        3.0190873274        1.8850171941
 H         -4.0710285027        4.3380518813        0.7430492303
 H         -5.4489529608        3.4653972932        1.4048255212
 H         -4.8627199780        3.7906304672       -1.6580128694
 H         -6.2497270882        2.9355379153       -0.9922626606
 H         -5.1572017873        2.1096220709       -2.1035370194
 H         -6.8083897427        1.8060778352        0.8459821654
 H         -7.7652406726       -0.3233586320        1.5520125331
 H         -6.4071974625       -2.3944077866        1.4090275998
 H         -4.0941269179       -2.2787350958        0.6136823697
 H         -2.0895853490       -1.4973088816        2.0897330246
 H         -0.5527558757       -3.4547505380        2.1267338115
 H          2.2082891290       -2.9981998516        2.2942741115
 H          2.9139187159       -0.6220229141        2.5467466433
 H          2.1184794885       -2.6400556757       -1.9543584209
 H          2.5550141483       -0.5954077726       -3.7889678306
 H          3.0425359813        1.5620891410       -4.9013654105
 H          3.7036337476        3.5254056959       -3.5931150446
 H          3.8633765200        3.4175788803       -1.1320947528
 H          4.9911048274        0.6007043105        2.2200815716
 H          5.5154967691        2.1578650826        4.0574110559
 H          4.4111408224        4.3634920540        4.1645907912
 H          2.7553002701        4.9933847621        2.4447426225
 H          2.1933343331        3.4192675130        0.6340460271
 H         -0.3372785764       -3.3961416962       -2.1356780183
 H         -1.8307951364       -1.4027590398       -2.1953607916
 H         -0.2456600705        0.1425547339       -0.7413473419
 H          0.8313085023        2.1589687108       -1.5911047618
 H         -0.4602885894        4.2669845353       -1.7819708087
 H         -2.7974544265        4.3240630206       -1.0809539169
