64
 energy: -98.615114155245 gnorm: 0.000054862323 xtb: 6.7.1 (edcfbbe)
C            7.35987204322624       -2.88027446044476       -2.01543717693130
C            6.07379275429711       -3.25121615219733       -1.62405952710707
C            5.24578958406357       -2.36669730430433       -0.94705462778051
C            5.72949103209888       -1.09849454673407       -0.67498671962783
C            7.05259515127903       -0.72518819627736       -1.03506034017912
C            7.86234553637307       -1.62817043698821       -1.72118608426199
C            7.25805044238954        0.59719146489618       -0.53619996234583
C            8.32706066642421        1.48937652040963       -0.59180359773656
C            8.17769096681696        2.74050995901994       -0.02683717184098
C            6.97925281227215        3.12162260028665        0.57616190069846
C            5.90290785342908        2.24856907034561        0.64936123670865
C            6.05403282499081        0.98131364097471        0.11314950376337
N            5.13533919184659       -0.05418296492613        0.01923104571412
C            3.85383945471257       -0.04583927041352        0.54166554502660
C            3.61717762261076        0.41259835993430        1.85649774442177
C            2.35499435731656        0.41231937563506        2.37615029824345
C            1.24375228077792       -0.00062666870500        1.59930234009898
N            0.00140625951489        0.03490713123435        2.17276137714241
C           -1.24188690989601        0.04843520754124        1.60081085967481
C           -2.35289003015532       -0.32613843412418        2.39733751906152
C           -3.61658381770773       -0.34244368210070        1.88175119729826
C           -3.85511693976657        0.06078080339926        0.54907420840764
N           -5.13757846572530        0.05422212314343        0.02990809295362
C           -5.72386014648179        1.06715029004947       -0.71590443424128
C           -5.23052171281252        2.31619020574456       -1.05162331619487
C           -6.04946205992792        3.16897453083879       -1.77855743711466
C           -7.33633844632812        2.78630624959846       -2.15584021617853
C           -7.84940321570312        1.55566242222278       -1.79670700814017
C           -7.04891629382393        0.68516559776072       -1.05960539109229
C           -7.26472121992824       -0.60862211195352       -0.49476669776119
C           -8.34039168247975       -1.49455758933464       -0.50662073916629
C           -8.19942401994818       -2.71836151642947        0.11724338946276
C           -7.00298803962439       -3.07918125170279        0.73651207696236
C           -5.92060040653131       -2.21103701806857        0.76797902268907
C           -6.06349782997138       -0.96934139021470        0.17311806992172
C           -2.75872752246040        0.49434244823407       -0.22767681973546
C           -1.48783344916562        0.47943840765579        0.27567296962457
C            1.48835080637060       -0.48871046443308        0.29394177525699
C            2.75808521530222       -0.51942575280295       -0.21198463056921
H            7.97509171488904       -3.59286263530606       -2.54614587626091
H            5.71639294083416       -4.24577017235669       -1.84596236636950
H            4.26213610618702       -2.67626505561826       -0.62885988483750
H            8.86623764045520       -1.35180272258075       -2.00752791360321
H            9.25008333585547        1.20530785383033       -1.07504433254610
H            8.99681111257286        3.44463878642143       -0.06114936924588
H            6.88385732068032        4.11508528057759        0.98848153237105
H            4.97313407305294        2.56389059566602        1.09766292831718
H            4.45610984654438        0.71609783575424        2.46379721490860
H            2.18971485455944        0.73500442112405        3.39445146643765
H            0.00238933154972        0.05637284993492        3.18781583248823
H           -2.18605471173559       -0.60686723169979        3.42773462458077
H           -4.45512052385752       -0.61515500462895        2.50404523553809
H           -4.24615885785596        2.63572156327770       -0.74563456722255
H           -5.68413929400104        4.14778056048297       -2.05169556244535
H           -7.94376498343096        3.47340371047412       -2.72755935478211
H           -8.85395970697853        1.27123184268920       -2.07265134053364
H           -9.26169144198423       -1.22739014113576       -1.00259095479440
H           -9.02356647338292       -3.41741698897148        0.11705686609332
H           -6.91395050369874       -4.05294547052665        1.19473751205292
H           -4.99259487821559       -2.51161091081481        1.22977560201301
H           -2.92986493277350        0.80851208079322       -1.24567692357335
H           -0.66998390770754        0.83705283578433       -0.32830117845693
H            0.67083437358084       -0.87750403969649       -0.29096918405816
H            2.92844837695680       -0.87858086223837       -1.21517236769436
