64
 energy: -98.616761034628 gnorm: 0.000123493424 xtb: 6.7.1 (edcfbbe)
C            6.53445033846967       -3.62640155789951        1.29776198441475
C            5.16516730369586       -3.40508672149830        1.44292218660603
C            4.58573562875388       -2.20658687334162        1.05088195265788
C            5.40411807691840       -1.23617777644190        0.49867176974354
C            6.80597863841230       -1.43775485780944        0.38422361220970
C            7.36400948726151       -2.65164580482039        0.78009609402830
C            7.35420823267792       -0.22978295067495       -0.14470786975382
C            8.64474177610758        0.16735129278640       -0.48881275198987
C            8.82966036445956        1.42081686620958       -1.03733786046714
C            7.75028709688608        2.27401710218536       -1.26549378985258
C            6.45716668564737        1.90372792193873       -0.92409649030106
C            6.26651448984749        0.66399503275483       -0.33826732742259
N            5.09072421598101        0.04330633458156        0.06063667462392
C            3.82575401048678        0.59949180666800        0.03039195533199
C            2.72126569660389       -0.14331964084810       -0.44225764858640
C            1.46670946440927        0.39593996014172       -0.46724370280225
C            1.23726918985779        1.71265231973607       -0.00059225042869
N            0.00060831546563        2.29736109164863        0.00266681241151
C           -1.23624296672741        1.71294280305207        0.00455945157132
C           -2.35281571616074        2.47296692885470       -0.42287274303042
C           -3.60683207753736        1.93390524897020       -0.44315799726074
C           -3.82514039361480        0.60063540973696       -0.02883915327436
N           -5.09038306991910        0.04515823013372       -0.05991196784340
C           -5.40456184573764       -1.23377431915202       -0.49911276211183
C           -4.58677421021398       -2.20433468632773       -1.05188371676057
C           -5.16695219805179       -3.40220317180872       -1.44493323013299
C           -6.53643381608453       -3.62270576171264       -1.30017712019193
C           -7.36543147310681       -2.64777436375087       -0.78199297941874
C           -6.80664945237493       -1.43446127578334       -0.38514455441716
C           -7.35418714608956       -0.22658320131852        0.14450501927460
C           -8.64465063553477        0.17127109029480        0.48833662121463
C           -8.82888700112473        1.42441802051342        1.03777162657190
C           -7.74896586198901        2.27662259004110        1.26719467350290
C           -6.45592504147937        1.90563732569037        0.92606598350021
C           -6.26590506432798        0.66630995309043        0.33922651019151
C           -2.72097955758098       -0.14323656679897        0.44302316529709
C           -1.46626015579870        0.39558409129532        0.46913580679589
C            2.35420677615332        2.47170259183675        0.42756658675062
C            3.60808278058476        1.93222931830613        0.44659320385645
H            6.95069050135976       -4.57405126593416        1.60853338602010
H            4.54471938972120       -4.17688339691584        1.87369712124193
H            3.52885136447424       -2.04050527970388        1.19223649492919
H            8.42687782229776       -2.81906417837332        0.68797788513066
H            9.47967231754890       -0.50007875749221       -0.33507862985698
H            9.82393969368389        1.74470027904323       -1.31015794687980
H            7.92145049782930        3.23754037305381       -1.72212078827044
H            5.62881808443128        2.56321269137183       -1.13283273760665
H            2.89278612835878       -1.12898666513181       -0.84713001767342
H            0.65098077101620       -0.15766039919599       -0.90436707371520
H            0.00072583024257        3.31206444121437        0.00360145884139
H           -2.19437394044788        3.48464491835302       -0.76792954511571
H           -4.43780381573897        2.50719188258695       -0.82374791507274
H           -3.52975266112372       -2.03890353702397       -1.19296452201776
H           -4.54693486778887       -4.17410027602264       -1.87613856107531
H           -6.95323402201427       -4.56989700846759       -1.61159010525054
H           -8.42841722810230       -2.81456702580143       -0.69010348881171
H           -9.48000505491876       -0.49540405813266        0.33363545775837
H           -9.82305944620176        1.74884752710051        1.31033876865254
H           -7.91960275692106        3.23988712644341        1.72456216720573
H           -5.62721441113007        2.56434146454406        1.13581174986923
H           -2.89291007246784       -1.12941741406858        0.84645113068504
H           -0.65083663219485       -0.15894505476583        0.90564530831031
H            2.19618809123787        3.48290875852772        0.77420941439831
H            4.43940411412209        2.50473343563711        0.82761703587089
