  64
        -98.67820656
 C          7.3219247483       -3.0636859355       -1.7025037436
 C          6.0543280325       -3.4040679806       -1.2343971267
 C          5.2282975891       -2.4680176076       -0.6428407890
 C          5.6979282721       -1.1666905373       -0.5333941389
 C          6.9915413340       -0.8166693093       -0.9854894658
 C          7.8029383578       -1.7758726931       -1.5774024397
 C          7.1669459180        0.5750308702       -0.6794751855
 C          8.2018704007        1.4774749712       -0.8870245344
 C          8.0328565683        2.7842707131       -0.4755544873
 C          6.8456147720        3.1990864163        0.1245217773
 C          5.8017975671        2.3205882645        0.3417988916
 C          5.9734848574        1.0007841687       -0.0511904736
 N          5.0955439402       -0.0599360392        0.0279006063
 C          3.8110148205       -0.0215811551        0.5900244766
 C          3.6204161392        0.4703642077        1.8784777638
 C          2.3560230317        0.5155248123        2.4250516107
 C          1.2465287442        0.0652104159        1.7044868136
 N          0.0023214615        0.1008646143        2.3068626967
 C         -1.2452733148        0.0970777426        1.7097289502
 C         -2.3426351808       -0.3611700239        2.4433998382
 C         -3.6082745994       -0.3595790531        1.8978520792
 C         -3.8120392885        0.0948994127        0.5975970607
 N         -5.0961414401        0.0744220048        0.0340890002
 C         -5.7366410271        1.1389262916       -0.5654309304
 C         -5.3134753200        2.4512530424       -0.7223873159
 C         -6.1713896094        3.3351142450       -1.3480289248
 C         -7.4257013017        2.9336561522       -1.8030199560
 C         -7.8611202245        1.6351537363       -1.6305157813
 C         -7.0167746189        0.7276026101       -1.0044773421
 C         -7.1429616658       -0.6581695201       -0.6509545587
 C         -8.1449845084       -1.6034797721       -0.8273051486
 C         -7.9288245011       -2.8893186333       -0.3739560308
 C         -6.7268407795       -3.2415732687        0.2367180313
 C         -5.7156217969       -2.3192234165        0.4244128446
 C         -5.9354320744       -1.0195474805       -0.0097463070
 C         -2.7273688186        0.5774313195       -0.1288520982
 C         -1.4628215670        0.5917918463        0.4224257707
 C          1.4491607128       -0.4599818456        0.4268669079
 C          2.7129695085       -0.4899569366       -0.1253622031
 H          7.9362771197       -3.8241660965       -2.1610418735
 H          5.7114489332       -4.4235389679       -1.3329179439
 H          4.2541006510       -2.7439801539       -0.2679106444
 H          8.7907420014       -1.5157238062       -1.9268455838
 H          9.1165371350        1.1595938729       -1.3643754301
 H          8.8263325265        3.5011223765       -0.6255731041
 H          6.7382751265        4.2311657405        0.4242096710
 H          4.8792500164        2.6534128387        0.7934809406
 H          4.4715777566        0.8072261591        2.4509195471
 H          2.2179780769        0.8953315860        3.4275309271
 H          0.0049161133        0.1092089929        3.3164325851
 H         -2.1941705579       -0.7148170875        3.4539373991
 H         -4.4501533922       -0.7042912791        2.4792598849
 H         -4.3501895934        2.7756703410       -0.3582536542
 H         -5.8645518544        4.3618364981       -1.4839300133
 H         -8.0659251964        3.6546941205       -2.2891058702
 H         -8.8386642503        1.3274468650       -1.9699979608
 H         -9.0705119564       -1.3344856386       -1.3136889750
 H         -8.6955406663       -3.6391742250       -0.5000623884
 H         -6.5810678918       -4.2594819088        0.5671921655
 H         -4.7810805212       -2.6042826632        0.8840550011
 H         -2.8805316154        0.9421380011       -1.1333750873
 H         -0.6404646386        1.0058403347       -0.1393441402
 H          0.6162308844       -0.8651248834       -0.1256534586
 H          2.8554819081       -0.8811290447       -1.1215125205
