64
 energy: -98.718504602649 gnorm: 0.000059213454 xtb: 6.7.1 (edcfbbe)
C            7.36062112165083       -3.03814610361245       -1.85641133132703
C            6.08639007062921       -3.40063179706842       -1.42287705111651
C            5.26058639002964       -2.50081147570856       -0.77686198238014
C            5.73493760598848       -1.21130302548298       -0.57748570437105
C            7.03538780995788       -0.84085597524751       -0.99431467925494
C            7.84744286213158       -1.76428669687751       -1.64083042778428
C            7.21491765650688        0.52787850899899       -0.59933370659619
C            8.25757165184304        1.43550926218745       -0.73853075370594
C            8.09205151980738        2.71517113871484       -0.24722116185709
C            6.89996656697203        3.09874992171774        0.36501396862055
C            5.84856322881364        2.21491723459323        0.51436560153944
C            6.01604819941606        0.92037942754412        0.04123646892536
N            5.13173267700542       -0.13862434541400        0.04595691178199
C            3.83647917543249       -0.12096759320562        0.59117710608651
C            3.63071740028430        0.30276915773912        1.90163072749385
C            2.35684100117367        0.34631514257925        2.42582491759263
C            1.25061110950365       -0.04283357678908        1.66343531814371
N            0.00000686469418        0.00000667124887        2.25083452770910
C           -1.25060286071261        0.04285605713311        1.66344907077568
C           -2.35683307449487       -0.34623236132132        2.42586948941166
C           -3.63071404389626       -0.30268642418677        1.90168670817865
C           -3.83648125368864        0.12100188762413        0.59121839614676
N           -5.13173926572731        0.13864341866666        0.04600546530497
C           -5.73494760310310        1.21129827942554       -0.57747461695170
C           -5.26060692570231        2.50080438802981       -0.77688650988369
C           -6.08640638797339        3.40059028564685       -1.42295508932972
C           -7.36061149235250        3.03806496105181       -1.85652991527255
C           -7.84742113081541        1.76420637854124       -1.64091953540283
C           -7.03537833181406        0.84081582402630       -0.99433258004501
C           -7.21493209477158       -0.52788044470920       -0.59923186569997
C           -8.25759847262880       -1.43550811881834       -0.73835797047115
C           -8.09206748710954       -2.71515674349055       -0.24701658764939
C           -6.89996012128606       -3.09872589077552        0.36518197075286
C           -5.84855219044510       -2.21488934201475        0.51448292985180
C           -6.01604486523015       -0.92036812812362        0.04131304116541
C           -2.74402684952560        0.53633902114726       -0.16405207798303
C           -1.47035653243711        0.51483183142912        0.36766326249660
C            1.47035903445126       -0.51485484603601        0.36766546321204
C            2.74402274418713       -0.53634984932156       -0.16406665256023
H            7.97523707843773       -3.77016574132271       -2.35998467359260
H            5.73823805742178       -4.40932143709539       -1.59276526499374
H            4.28178701609050       -2.79647565655440       -0.43052444178508
H            8.84058840253798       -1.48793955263078       -1.96305234465465
H            9.17647795577601        1.14262921494975       -1.22471601807217
H            8.89193162889942        3.43504762338806       -0.34316679006059
H            6.79494553821349        4.11112610870443        0.72776243157927
H            4.92333811470285        2.52605109192442        0.97562922183749
H            4.47631836164236        0.59171387254728        2.50770744924194
H            2.20860354193793        0.67794825058975        3.44382939275431
H            0.00001298659808        0.00002655086998        3.26138047214556
H           -2.20859104240518       -0.67782440465534        3.44388685483782
H           -4.47631372283717       -0.59159687722476        2.50778265231231
H           -4.28178163751951        2.79646690910229       -0.43061870585853
H           -5.73823422574533        4.40925911531685       -1.59293211339122
H           -7.97524774280896        3.77007772054326       -2.36009123918885
H           -8.84060154428067        1.48787112557559       -1.96304626524182
H           -9.17646152772556       -1.14268520657735       -1.22465850719243
H           -8.89191708497707       -3.43506256889698       -0.34299893595775
H           -6.79494801915094       -4.11107643069842        0.72800342801964
H           -4.92335047041557       -2.52598348881961        0.97581975786510
H           -2.89655297817409        0.87940964797710       -1.17646880643581
H           -0.64555825780132        0.88559319441950       -0.21932909829948
H            0.64556144614001       -0.88565634260796       -0.21930239912834
H            2.89654541868488       -0.87946777867164       -1.17646720229752
