  85
  -132.458780507200       0.265128280255077      !
 C          5.7313153762        3.8788267612        0.3328018583
 C          5.0768265286        3.2534442784       -0.7157634384
 C          5.2100349438        1.8916617398       -0.9078071873
 C          5.9939918341        1.1452859910       -0.0337314118
 N          6.1400775094       -0.2386467306       -0.2222444942
 C          5.1562146616       -1.1867475056       -0.4269761710
 C          3.7292037589       -0.9321755390       -0.3224285401
 C          2.8610902474       -1.7211530036       -1.0786219393
 C          1.4976851517       -1.5337633679       -1.0039069631
 C          0.9603417655       -0.5486572523       -0.1769364302
 C         -0.4922505835       -0.3380185451       -0.0972798781
 C         -1.0147790524        0.9506904596       -0.0770505746
 C         -2.3877160348        1.1518299385        0.0084222698
 N         -2.9011456772        2.4547676738        0.0420319944
 C         -2.4768473340        3.4645607833        0.8839852243
 C         -1.5117152670        3.4387736222        1.8803435722
 C         -1.2974640712        4.5973569335        2.6021691972
 C         -2.0283587597        5.7564464007        2.3513124850
 C         -3.0079454639        5.7808619391        1.3789459385
 C         -3.2408194975        4.6286735824        0.6396918913
 C         -4.1675903993        4.2970538424       -0.4060721700
 C         -5.1481945629        5.0157875523       -1.0768329286
 C         -5.8634618671        4.3863988601       -2.0757387499
 C         -5.5986025243        3.0631924268       -2.4210717380
 C         -4.6276738239        2.3292122641       -1.7680097986
 C         -3.9251535103        2.9461083690       -0.7439191313
 C         -3.2486632321        0.0628046506        0.0855474463
 C         -2.7309868938       -1.2277046610        0.0587965545
 N         -3.5871171916       -2.3303403552        0.1669104869
 C         -3.4374168090       -3.3763097529        1.0590906852
 C         -2.4721665717       -3.5764628801        2.0353343382
 C         -2.5735409579       -4.7090877630        2.8203931141
 C         -3.6120980152       -5.6218081645        2.6513574107
 C         -4.5897944352       -5.4148658671        1.6991993830
 C         -4.5091734109       -4.2835738679        0.8980592920
 C         -5.3395138057       -3.7549500018       -0.1476259217
 C         -6.5068101452       -4.1979888603       -0.7550084756
 C         -7.0524172317       -3.4407474242       -1.7721719364
 C         -6.4380303587       -2.2654159429       -2.1975037786
 C         -5.2750549522       -1.8069628808       -1.6094810928
 C         -4.7372420156       -2.5469732526       -0.5671926221
 C         -1.3582592074       -1.4248589745       -0.0434687678
 C          1.8284627250        0.2241318023        0.5912149386
 C          3.1934221829        0.0310585366        0.5311866320
 N          5.6432925448       -2.3703643798       -0.6875877748
 C          7.0025362189       -2.2399622118       -0.6643493622
 C          8.0023992954       -3.1820385302       -0.8829519566
 C          9.3102605270       -2.7539532149       -0.8124956505
 C          9.6325569718       -1.4222807357       -0.5408101360
 C          8.6573509344       -0.4709399709       -0.3190573911
 C          7.3402832099       -0.8976790216       -0.3702506993
 C          6.6531207184        1.7718421170        1.0179277482
 C          6.5207484458        3.1372254634        1.1948242569
 H          5.6254910527        4.9431318386        0.4775070245
 H          4.4645473504        3.8302272310       -1.3921558207
 H          4.7097505522        1.3985281138       -1.7276989189
 H          3.2833045192       -2.4779004533       -1.7208430897
 H          0.8391455037       -2.1385310963       -1.6096769045
 H         -0.3567164624        1.8020019352       -0.1612049598
 H         -0.9546232997        2.5397214189        2.0971788561
 H         -0.5491947884        4.6031086732        3.3811873329
 H         -1.8305237397        6.6419819390        2.9366704330
 H         -3.5883800379        6.6727688262        1.1974095668
 H         -5.3405677356        6.0468882509       -0.8214108202
 H         -6.6338628211        4.9257762703       -2.6059828169
 H         -6.1629681760        2.6012258093       -3.2175613733
 H         -4.4141919566        1.3122050777       -2.0583373444
 H         -4.3102780734        0.2191107214        0.2000143296
 H         -1.6723966877       -2.8677873298        2.1892426007
 H         -1.8317619145       -4.8881808662        3.5846436333
 H         -3.6537534213       -6.4967703458        3.2826580048
 H         -5.4042764966       -6.1129667824        1.5779421422
 H         -6.9733460445       -5.1175391700       -0.4355557690
 H         -7.9631118889       -3.7643599953       -2.2536347234
 H         -6.8773796355       -1.7020336987       -3.0074579177
 H         -4.7948033395       -0.9082348151       -1.9637937899
 H         -0.9656828856       -2.4296194699       -0.0662171542
 H          1.4273719167        0.9667087254        1.2655017532
 H          3.8388487113        0.6178089187        1.1674379276
 H          7.7480956111       -4.2059393029       -1.1040482200
 H         10.1110314872       -3.4599465514       -0.9759778379
 H         10.6717575505       -1.1307711538       -0.5039078891
 H          8.9107050545        0.5599110883       -0.1205692151
 H          7.2509387328        1.1834247469        1.6979368843
 H          7.0273960796        3.6202235622        2.0166768462
  85
  -132.458652884800       0.231635362053510      !
 C          5.5853867151        3.9288095700        0.3984897159
 C          4.9852034225        3.1713729065       -0.5944370661
 C          5.1648521730        1.8016604973       -0.6307624389
 C          5.9407994314        1.1812176538        0.3437525701
 N          6.1297465034       -0.2097269390        0.3126385686
 C          5.1748675821       -1.1974984037        0.1671043817
 C          3.7409860372       -0.9587989134        0.1790213775
 C          2.9222260950       -1.8014945894       -0.5728502224
 C          1.5567078199       -1.6156513595       -0.5927239697
 C          0.9677762407       -0.5832034536        0.1361110579
 C         -0.4846645630       -0.3649906564        0.0829615949
 C         -0.9983655481        0.9263139558        0.0186266624
 C         -2.3703093564        1.1366721923       -0.0616615414
 N         -2.8695496043        2.4406840688       -0.1729783344
 C         -2.4369707215        3.3906475278       -1.0791007540
 C         -1.4749321401        3.2923070720       -2.0740880952
 C         -1.2528941592        4.4005724166       -2.8690339239
 C         -1.9724962053        5.5800151130       -2.6918189182
 C         -2.9489044929        5.6754764551       -1.7207538074
 C         -3.1901790941        4.5747859070       -0.9092516830
 C         -4.1189999430        4.3194974222        0.1558425744
 C         -5.0930535073        5.0891653918        0.7779268904
 C         -5.8163821519        4.5313379196        1.8129877088
 C         -5.5657059723        3.2297337716        2.2410537666
 C         -4.6004271160        2.4464735636        1.6383705399
 C         -3.8897090016        2.9903777249        0.5788924350
 C         -3.2422115184        0.0534821005       -0.0638059441
 C         -2.7342809251       -1.2382037897        0.0195579753
 N         -3.6024895029       -2.3366351065       -0.0015365075
 C         -3.4919551203       -3.4269925634       -0.8436166838
 C         -2.5659108203       -3.6807830051       -1.8448557309
 C         -2.6995355139       -4.8515172352       -2.5663342956
 C         -3.7331552931       -5.7495695417       -2.3103449581
 C         -4.6731345915       -5.4897870136       -1.3333296326
 C         -4.5593717136       -4.3193564457       -0.5948430067
 C         -5.3468597036       -3.7324947346        0.4531089229
 C         -6.4921311179       -4.1353818581        1.1269874910
 C         -6.9929636766       -3.3238200554        2.1251488938
 C         -6.3561777940       -2.1329939071        2.4664004519
 C         -5.2152106098       -1.7128274520        1.8105266384
 C         -4.7229915500       -2.5088810617        0.7873263540
 C         -1.3612187091       -1.4447519037        0.0918910248
 C          1.7861857606        0.2376549624        0.9092194039
 C          3.1529425648        0.0508242065        0.9393784449
 N          5.6945519691       -2.3897312470        0.0527332345
 C          7.0491346212       -2.2251292650        0.1205104949
 C          8.0751747482       -3.1612099234        0.0442282776
 C          9.3706137343       -2.6974197247        0.1220327732
 C          9.6553376850       -1.3372127583        0.2634161997
 C          8.6533453464       -0.3910101425        0.3435943063
 C          7.3479538300       -0.8517092686        0.2850985014
 C          6.5445385340        1.9402324873        1.3402849563
 C          6.3659931531        3.3117827474        1.3613737527
 H          5.4446104365        4.9987340224        0.4213838844
 H          4.3792556418        3.6502437370       -1.3488102513
 H          4.7068226901        1.2055436463       -1.4060927036
 H          3.3828742185       -2.5955537132       -1.1390495361
 H          0.9390453660       -2.2622445467       -1.1982946655
 H         -0.3309597739        1.7743279328        0.0190766600
 H         -0.9243564563        2.3776040408       -2.2346890118
 H         -0.5072195438        4.3488943584       -3.6488107539
 H         -1.7673627662        6.4248259034       -3.3323410872
 H         -3.5197042220        6.5829662935       -1.5940951477
 H         -5.2749185738        6.1037124570        0.4568315615
 H         -6.5815937390        5.1111790119        2.3071094929
 H         -6.1353229666        2.8248686573        3.0644591950
 H         -4.3989886405        1.4476413332        1.9930217049
 H         -4.3047197078        0.2123341566       -0.1652843850
 H         -1.7738880962       -2.9811501690       -2.0658437097
 H         -1.9886023219       -5.0734288224       -3.3485322559
 H         -3.8015098729       -6.6553761429       -2.8941020153
 H         -5.4848039696       -6.1766353041       -1.1467399556
 H         -6.9748125226       -5.0674035138        0.8746931566
 H         -7.8845163206       -3.6171365377        2.6590824625
 H         -6.7603687685       -1.5268604797        3.2637212106
 H         -4.7161188701       -0.8005018497        2.0983073215
 H         -0.9804868966       -2.4499149160        0.1871123806
 H          1.3432722367        1.0157603430        1.5132643344
 H          3.7602685438        0.6817883037        1.5710979596
 H          7.8499559245       -4.2083633786       -0.0774016756
 H         10.1910303316       -3.3974679171        0.0648865437
 H         10.6862260283       -1.0185492812        0.3082959338
 H          8.8783415047        0.6608485820        0.4402245056
 H          7.1371037727        1.4501493676        2.0985577106
 H          6.8338613800        3.8988299704        2.1375668525
  85
  -132.458470963100       0.191073049963777      !
 C          5.7992028984        3.8324297129        0.6247603612
 C          5.1393535140        3.2944101673       -0.4685575002
 C          5.2490063082        1.9469084501       -0.7554792270
 C          6.0147914799        1.1269278154        0.0676953216
 N          6.1398492285       -0.2429420506       -0.2166532519
 C          5.1468859900       -1.1691827201       -0.4721928784
 C          3.7211670250       -0.9169232187       -0.3486091506
 C          2.8508391756       -1.6886237947       -1.1208605408
 C          1.4875296007       -1.5067002051       -1.0359493829
 C          0.9522623272       -0.5402575029       -0.1861027935
 C         -0.5005387137       -0.3316984408       -0.1013115731
 C         -1.0253019567        0.9559353465       -0.0921775592
 C         -2.3988869249        1.1549868379       -0.0078908479
 N         -2.9148193706        2.4571779460        0.0108317728
 C         -2.4845852221        3.4799435732        0.8341464133
 C         -1.5151807863        3.4685916581        1.8265439139
 C         -1.2952051412        4.6384796551        2.5280290138
 C         -2.0252815602        5.7945918575        2.2618560183
 C         -3.0094497369        5.8048987639        1.2939087077
 C         -3.2478868925        4.6411754663        0.5748487755
 C         -4.1801894349        4.2944704292       -0.4609736707
 C         -5.1628501641        5.0044956665       -1.1381731167
 C         -5.8848855932        4.3606930827       -2.1229969398
 C         -5.6247381222        3.0313846179       -2.4478709590
 C         -4.6512771523        2.3061349358       -1.7885614871
 C         -3.9418603133        2.9377306928       -0.7781060487
 C         -3.2568284126        0.0644755482        0.0822295139
 C         -2.7360471118       -1.2250688482        0.0684298833
 N         -3.5888353312       -2.3289447286        0.1900958777
 C         -3.4335226288       -3.3649571738        1.0926594239
 C         -2.4675119740       -3.5493134528        2.0713000480
 C         -2.5617283514       -4.6751727165        2.8669332518
 C         -3.5942212522       -5.5962295669        2.7060846130
 C         -4.5725955670       -5.4049568236        1.7513062293
 C         -4.4991860202       -4.2807003472        0.9395451172
 C         -5.3322354317       -3.7672162222       -0.1115955396
 C         -6.4966424243       -4.2229185051       -0.7153459567
 C         -7.0451517677       -3.4795823814       -1.7412336166
 C         -6.4369298906       -2.3052288454       -2.1782146173
 C         -5.2772648997       -1.8339791178       -1.5936135675
 C         -4.7363833746       -2.5602759364       -0.5433128551
 C         -1.3632062889       -1.4202616177       -0.0355026783
 C          1.8212535481        0.2150621075        0.5975857483
 C          3.1863430701        0.0229939071        0.5313605040
 N          5.6242100348       -2.3378583116       -0.8096769804
 C          6.9841354496       -2.2189684945       -0.7892427520
 C          7.9757184541       -3.1519377600       -1.0752972669
 C          9.2871044653       -2.7373816829       -0.9894129339
 C          9.6209781152       -1.4273782705       -0.6370890947
 C          8.6542366569       -0.4857804251       -0.3474081180
 C          7.3337829460       -0.9002310947       -0.4145299391
 C          6.6797461666        1.6659405881        1.1637603148
 C          6.5704417631        3.0176534587        1.4363552884
 H          5.7128916484        4.8859988573        0.8431429866
 H          4.5407495164        3.9284579851       -1.1051459048
 H          4.7414924088        1.5205634245       -1.6081833791
 H          3.2725784041       -2.4293307718       -1.7816638550
 H          0.8266494426       -2.1003487335       -1.6501704837
 H         -0.3682472285        1.8071325221       -0.1853406359
 H         -0.9590843916        2.5720977333        2.0559862303
 H         -0.5431555694        4.6555294654        3.3031483062
 H         -1.8219051586        6.6897039299        2.8306169976
 H         -3.5878507537        6.6953797634        1.0992216301
 H         -5.3514090227        6.0401123024       -0.8986491532
 H         -6.6560366899        4.8936478432       -2.6589597855
 H         -6.1932223584        2.5583149231       -3.2349023422
 H         -4.4410925844        1.2844954336       -2.0645275053
 H         -4.3187428303        0.2190351104        0.1965300821
 H         -1.6723379401       -2.8340225186        2.2181567351
 H         -1.8189472138       -4.8424734595        3.6329073504
 H         -3.6306205332       -6.4652434900        3.3459670154
 H         -5.3827290835       -6.1091907061        1.6368810095
 H         -6.9572846686       -5.1427937265       -0.3881963839
 H         -7.9524009964       -3.8143385499       -2.2215764914
 H         -6.8786686264       -1.7528057827       -2.9943896519
 H         -4.8019427854       -0.9357625408       -1.9559642965
 H         -0.9676954538       -2.4241297174       -0.0526387803
 H          1.4206939282        0.9435023414        1.2875638755
 H          3.8316779115        0.5947083610        1.1810554101
 H          7.7124385483       -4.1581703839       -1.3583871200
 H         10.0816661599       -3.4362298903       -1.2056888368
 H         10.6624088928       -1.1447858443       -0.5928851977
 H          8.9159393325        0.5293020051       -0.0873140695
 H          7.2646919443        1.0203061538        1.8021337563
 H          7.0855279956        3.4333021640        2.2895822768
  85
  -132.458426336900       0.182259701414414      !
 C          5.6841394466        3.9028983154        0.0111136230
 C          6.4397120268        3.3140342015       -0.9887600715
 C          6.5865075329        1.9392294568       -1.0337341851
 C          5.9764057763        1.1481573755       -0.0662522047
 N          6.1341593301       -0.2464502945       -0.1012525119
 C          5.1596117459       -1.2186010031        0.0168927940
 C          3.7306539538       -0.9524950075        0.0207641435
 C          3.1622217270        0.0981290851       -0.6978177618
 C          1.7969448136        0.2946806957       -0.6784774077
 C          0.9594519352       -0.5548095576        0.0420249987
 C         -0.4941784428       -0.3407628257        0.0459615653
 C         -1.0150759772        0.9475277904        0.1125359764
 C         -2.3894539897        1.1555604990        0.0878533920
 N         -2.8986095767        2.4582976670        0.1461727097
 C         -2.4783305333        3.5198360249       -0.6317452907
 C         -1.5458574182        3.5493097582       -1.6586957513
 C         -1.3286384328        4.7541091638       -2.2994260311
 C         -2.0262591250        5.9050692035       -1.9401400242
 C         -2.9757161994        5.8755851282       -0.9383945206
 C         -3.2107847728        4.6762197045       -0.2792765715
 C         -4.1129531512        4.2847077131        0.7674794736
 C         -5.0580571794        4.9714132144        1.5181068052
 C         -5.7581247677        4.2837769076        2.4889616369
 C         -5.5138194127        2.9330184139        2.7259339979
 C         -4.5784196028        2.2285076673        1.9923083848
 C         -3.8897850665        2.9078931980        0.9978201542
 C         -3.2567681871        0.0717333862        0.0113728809
 C         -2.7411894536       -1.2184513887       -0.0393219762
 N         -3.6087569714       -2.3149722345       -0.1106165031
 C         -4.6509421384       -2.4708882059       -1.0038603301
 C         -5.0554517966       -1.6458209547       -2.0431062463
 C         -6.1239767029       -2.0591220085       -2.8157036438
 C         -6.7748813946       -3.2662239406       -2.5714015247
 C         -6.3624730567       -4.1016595670       -1.5526976185
 C         -5.2902276043       -3.7084570791       -0.7628037146
 C         -4.5972354552       -4.3195359073        0.3370205079
 C         -4.7681681337       -5.5096510428        1.0317810336
 C         -3.9181836571       -5.7900402328        2.0828960298
 C         -2.9170077387       -4.8950173356        2.4532370966
 C         -2.7274265975       -3.7048820668        1.7773201164
 C         -3.5636863124       -3.4286065898        0.7054813350
 C         -1.3661296512       -1.4221569059       -0.0283313661
 C          1.5304053164       -1.6189351436        0.7388009308
 C          2.8946127754       -1.8156821817        0.7292930995
 N          5.6541345563       -2.4257738252        0.0715391584
 C          7.0106995204       -2.2880067671       -0.0122522236
 C          8.0160102746       -3.2492406500        0.0015715387
 C          9.3200047859       -2.8115827680       -0.0839434828
 C          9.6333036538       -1.4531458491       -0.1715289353
 C          8.6522487543       -0.4821278715       -0.1881890599
 C          7.3378403148       -0.9155972280       -0.1229723914
 C          5.2253740209        1.7397953997        0.9451195535
 C          5.0772191812        3.1135046303        0.9747302931
 H          5.5693057560        4.9757944791        0.0407906634
 H          6.9124269596        3.9259455067       -1.7425105235
 H          7.1584980086        1.4719648461       -1.8216886298
 H          3.7830501825        0.7511523267       -1.2929014825
 H          1.3710901407        1.1026993965       -1.2549146183
 H         -0.3532445708        1.7935347138        0.2167907973
 H         -1.0159867208        2.6581661942       -1.9602715086
 H         -0.6047719929        4.8032241626       -3.0996622810
 H         -1.8262781343        6.8281242668       -2.4635758117
 H         -3.5304196090        6.7627426888       -0.6726646654
 H         -5.2343266942        6.0223328095        1.3451197546
 H         -6.4991108778        4.7980702129        3.0826035380
 H         -6.0649311547        2.4249312344        3.5034543944
 H         -4.3845753841        1.1868636014        2.1993502267
 H         -4.3238077184        0.2299565101       -0.0085741752
 H         -4.5465516403       -0.7170682144       -2.2532896537
 H         -6.4597773528       -1.4328846420       -3.6290544280
 H         -7.6074199913       -3.5524902581       -3.1966950486
 H         -6.8559031185       -5.0449955309       -1.3736935619
 H         -5.5546835103       -6.1954857588        0.7553448778
 H         -4.0336021625       -6.7102730580        2.6358877810
 H         -2.2772264412       -5.1348465707        3.2897313945
 H         -1.9618693602       -3.0080162871        2.0843652102
 H         -0.9788768186       -2.4254324851       -0.1168413409
 H          0.8992405151       -2.2854104924        1.3077320060
 H          3.3403448782       -2.6384125614        1.2657902585
 H          7.7688320531       -4.2955374050        0.0805203581
 H         10.1248726855       -3.5317038011       -0.0776884158
 H         10.6701155763       -1.1559324264       -0.2264500649
 H          8.9000421372        0.5676177167       -0.2426742421
 H          4.7609027466        1.1185489593        1.6965698722
 H          4.4908710192        3.5700136614        1.7579498846
  85
  -132.458106320300       0.129903606313222      !
 C          5.6257115140        3.8664532273        0.4256557136
 C          4.9963255610        3.1835949505       -0.6026257299
 C          5.1652396412        1.8188006738       -0.7392126099
 C          5.9598968993        1.1272723013        0.1702193307
 N          6.1367767921       -0.2591197021        0.0392152865
 C          5.1700769290       -1.2258909391       -0.1589589440
 C          3.7391975682       -0.9722765079       -0.1087249676
 C          2.8978882948       -1.7319089658       -0.9212649530
 C          1.5339859525       -1.5326659394       -0.8968401612
 C          0.9701491020       -0.5709958951       -0.0595861371
 C         -0.4827242761       -0.3482079984       -0.0401954144
 C         -0.9947092344        0.9425661411        0.0441424519
 C         -2.3682730809        1.1562541940        0.0536141517
 N         -2.8735595482        2.4604285086        0.1241284746
 C         -2.4932554188        3.5172298030       -0.6803124174
 C         -1.5975750337        3.5452030664       -1.7396134558
 C         -1.4208906872        4.7443761804       -2.4032329701
 C         -2.1210358291        5.8907821215       -2.0343141708
 C         -3.0310291467        5.8630619700       -0.9965708680
 C         -3.2255863861        4.6696199544       -0.3139162627
 C         -4.0828872953        4.2812729404        0.7709675150
 C         -5.0049654963        4.9666196831        1.5509431790
 C         -5.6599736507        4.2823951323        2.5551098861
 C         -5.3940174563        2.9363337353        2.7956092596
 C         -4.4807668852        2.2332314168        2.0333618633
 C         -3.8372927235        2.9092961199        1.0068280860
 C         -3.2419391537        0.0762560671        0.0014041133
 C         -2.7350851117       -1.2164287430       -0.0722537538
 N         -3.6101464986       -2.3077791548       -0.1198957525
 C         -4.6962230078       -2.4401031500       -0.9641506495
 C         -5.1439861100       -1.5952214723       -1.9693943714
 C         -6.2542525685       -1.9857879868       -2.6935167413
 C         -6.9039905920       -3.1907628155       -2.4363911226
 C         -6.4476733772       -4.0474067620       -1.4547421635
 C         -5.3334795248       -3.6767521693       -0.7136229837
 C         -4.5921965858       -4.3132205240        0.3391785647
 C         -4.7384999164       -5.5165301516        1.0165687059
 C         -3.8403109274       -5.8248844966        2.0184870106
 C         -2.8163088920       -4.9437609791        2.3580437122
 C         -2.6506401462       -3.7406012684        1.6988661534
 C         -3.5348810503       -3.4369053740        0.6737744282
 C         -1.3609300912       -1.4249820298       -0.1045797044
 C          1.8122319138        0.1691910779        0.7679589224
 C          3.1773791118       -0.0301195271        0.7513950744
 N          5.6749589938       -2.4135422892       -0.3544907461
 C          7.0320898742       -2.2678130871       -0.2881291802
 C          8.0466217605       -3.2088789633       -0.4284208431
 C          9.3478484625       -2.7654202042       -0.3306170426
 C          9.6491425509       -1.4196066950       -0.1092875727
 C          8.6586999935       -0.4689626473        0.0353960610
 C          7.3476466760       -0.9107062483       -0.0403875762
 C          6.5920511274        1.8113947889        1.2028555413
 C          6.4245097128        3.1790787543        1.3238398865
 H          5.4937913283        4.9330192505        0.5262887087
 H          4.3761056475        3.7175268428       -1.3067552217
 H          4.6839964713        1.2814048206       -1.5429183875
 H          3.3383676540       -2.4746332074       -1.5676401045
 H          0.8971679419       -2.1118024300       -1.5490662452
 H         -0.3260198084        1.7879480275        0.0966444750
 H         -1.0631195425        2.6585655952       -2.0464530391
 H         -0.7272304692        4.7921823207       -3.2298288644
 H         -1.9534947366        6.8090433156       -2.5772735576
 H         -3.5861774259        6.7469070642       -0.7207545529
 H         -5.1984862723        6.0138985579        1.3744747059
 H         -6.3826053011        4.7957072695        3.1717627000
 H         -5.9103145095        2.4309674166        3.5983945426
 H         -4.2690961668        1.1953838446        2.2421586698
 H         -4.3080653816        0.2402438677        0.0190900960
 H         -4.6373821486       -0.6680955476       -2.1917201142
 H         -6.6238728000       -1.3432164060       -3.4789860696
 H         -7.7703578882       -3.4586156783       -3.0226650029
 H         -6.9402697062       -4.9894094009       -1.2665732937
 H         -5.5420577319       -6.1916011490        0.7635671927
 H         -3.9338868487       -6.7570380223        2.5554215494
 H         -2.1377568461       -5.2046410252        3.1567624185
 H         -1.8639338158       -3.0580475895        1.9832637244
 H         -0.9786885597       -2.4316959798       -0.1718193489
 H          1.3894528718        0.8904797775        1.4518290871
 H          3.8042605298        0.5349048496        1.4251697609
 H          7.8084395168       -4.2440761885       -0.6118851131
 H         10.1596874208       -3.4701497969       -0.4340986405
 H         10.6838845523       -1.1157261320       -0.0519109972
 H          8.8968077896        0.5724914690        0.1934840840
 H          7.1978875474        1.2660124858        1.9112962495
 H          6.9152809716        3.7075261250        2.1274278096
