  45
  -68.2190482206000        1.00000000000000      !
 C         -2.4636892313       -2.4827497022       -2.5326957766
 C         -1.0606909890       -2.5562939613       -2.6016392544
 C         -0.2877033491       -1.7530145020       -1.7856128444
 C         -0.8636781481       -0.8654959277       -0.8929014134
 C         -2.2817110190       -0.7921480179       -0.8270546669
 C         -3.0603393376       -1.6127085248       -1.6577804259
 N         -2.8791025726        0.0767016247        0.0420753911
 C         -2.2044626660        0.9155120163        0.8839328067
 C         -2.9065338741        1.7805532678        1.7367199396
 C         -2.2324373812        2.6252814139        2.5797712416
 C         -0.8254306469        2.6264012281        2.5936023650
 C         -0.1274583896        1.7769651413        1.7579167559
 C         -0.7826263115        0.9139755554        0.8955005858
 C         -0.0002258476       -0.0035176084       -0.0086522362
 C          0.8449656546        0.8679614175       -0.9017673945
 C          0.2497338809        1.7617219840       -1.7756518263
 C          1.0051224820        2.5776757177       -2.5952960499
 C          2.4091294408        2.5109228177       -2.5498640409
 C          3.0243760731        1.6342539364       -1.6943695018
 C          2.2636844207        0.8008359724       -0.8603877125
 N          2.8798159983       -0.0735468694       -0.0095184014
 C          2.2224893413       -0.9224817734        0.8363788296
 C          2.9426723204       -1.7904077652        1.6706762974
 C          2.2866821931       -2.6434164548        2.5199378256
 C          0.8806912460       -2.6502373589        2.5582153565
 C          0.1649024394       -1.7982601269        1.7402225152
 C          0.8016976654       -0.9269269039        0.8724619930
 H         -3.0656560948       -3.1121713392       -3.1696750983
 H         -0.5931881159       -3.2400405614       -3.2920852815
 H          0.7899377113       -1.8118734623       -1.8391615094
 H         -4.1382416768       -1.5456560398       -1.5940603671
 H         -3.8898265300        0.1030870118        0.0614482017
 H         -3.9881771675        1.7692091014        1.7150091843
 H         -2.7757736024        3.2904033924        3.2328088097
 H         -0.2966418555        3.2918455250        3.2574664758
 H          0.9530110598        1.7799452139        1.7703097867
 H         -0.8288850006        1.8153570474       -1.8107993255
 H          0.5226305125        3.2670757841       -3.2698022252
 H          2.9977534851        3.1510384023       -3.1885993714
 H          4.1035068695        1.5726029235       -1.6488658185
 H          3.8906749453       -0.0961397312       -0.0078645189
 H          4.0237313069       -1.7747508842        1.6303312425
 H          2.8443085852       -3.3100778643        3.1593115150
 H          0.3660700451       -3.3217549358        3.2269564006
 H         -0.9151385610       -1.8052308915        1.7716720262
