116
 energy: -176.517984535197 gnorm: 0.000030591704 xtb: 6.7.1 (edcfbbe)
N           -0.00052968818927        0.03046687082444       -0.56955919708199
C            0.05803000132395        0.78286553114274        0.29643944123873
C            0.12940000624021        1.77301137533253        1.30264949143957
C           -1.05051425056871        2.35254524313466        1.80356278912338
C           -2.37967960785222        1.85125971047255        1.45035492951667
C           -2.65528924853855        0.48387395266587        1.44753198308477
C           -3.91262498128433        0.01599257530869        1.13465677529022
C           -4.94113237917252        0.90392824981664        0.80762198842834
N           -6.21092289433180        0.43497245255580        0.48733808042641
C           -6.71901783019388       -0.71739918654208        1.10385954255247
C           -6.48930402872676       -0.96036252159940        2.45786842431734
C           -6.99507213683767       -2.09386825765718        3.05934685405014
C           -7.75642406287245       -3.01294610117041        2.33824169582992
C           -8.29823102444089       -4.21623144628638        2.98552277444925
C           -7.53213661597343       -4.93760195697086        3.89965028193791
C           -8.04054617428206       -6.07081019505728        4.50721390482347
C           -9.32432379307432       -6.50187010138023        4.21550829957697
C          -10.09601848360092       -5.79191716926443        3.31026635640618
C           -9.58768547677778       -4.66089187517222        2.69851843158531
C           -7.98930543666030       -2.75877648911210        0.98721519921610
C           -7.47563149530046       -1.63442440188326        0.37506431769000
C           -6.99818393034165        1.10960454957037       -0.45692078669811
C           -6.42364914835513        1.64969025837118       -1.60731705581137
C           -7.20365172331715        2.31434118165558       -2.53061238444930
C           -8.57936985595734        2.44954053063177       -2.34693987199773
C           -9.40814039081600        3.15427932484529       -3.33529703774345
C           -8.95281632578442        4.32405025823965       -3.94125605372368
C           -9.73550364420628        4.99018900214392       -4.86616306988645
C          -10.98496991188007        4.49777223375616       -5.20586640609287
C          -11.44686413839482        3.33421138738336       -4.61277724367258
C          -10.66707838152506        2.66877817094425       -3.68493440652190
C           -9.14796157256070        1.89741321042310       -1.19968565074828
C           -8.37289543285359        1.24331107084041       -0.26477598572960
C           -4.66754192916597        2.27498881671716        0.81426101053635
C           -3.41079958416259        2.73741724692320        1.13609163598703
C           -0.89938818814038        3.43828602319632        2.66762382430396
N            0.26831555093328        3.93025476130251        3.03717557124244
C            1.36880972071668        3.36167850469942        2.58215413072678
C            1.38063393382485        2.27017098654744        1.71179910514861
C            2.63935173585110        1.68030235152357        1.25701790474795
C            2.81233097089129        0.29624765567386        1.21838108577128
C            4.00247296036028       -0.25675764679918        0.80150202797345
C            5.06214569688068        0.55825542785406        0.39240891524208
N            6.25644132855133        0.00094420941787       -0.04941705766485
C            7.47462127307955        0.65521207800516        0.18378204317370
C            8.47159226369323        0.66336050874317       -0.79114504181440
C            9.67300549997970        1.29892044932812       -0.55573386836942
C            9.91545727375641        1.95685517826322        0.64946568464467
C           11.19157774558359        2.64461642505718        0.89248534907993
C           11.22069500124450        3.88211896150044        1.53323847248782
C           12.42047134367499        4.53065894657882        1.76040753994479
C           13.61283983939574        3.95276135556709        1.35629764082152
C           13.59659513367314        2.72216244872718        0.72041720369339
C           12.39733140621151        2.07447508646741        0.48787310210257
C            8.91327017031154        1.94571388123517        1.61897051549323
C            7.71467908056893        1.30026566215165        1.39684208062548
C            6.25413493071254       -1.21601120872146       -0.74696669376694
C            5.25339031507821       -1.50321683875521       -1.67493676254926
C            5.25684570761403       -2.70294988389112       -2.35554805886798
C            6.26252989627947       -3.64606314563729       -2.14726451042976
C            6.26490333600818       -4.92058122697448       -2.87952157184505
C            5.07864288179451       -5.62117275426651       -3.09091830927365
C            5.08155144147143       -6.82205431640445       -3.77630999138998
C            6.26813337755651       -7.34214289086019       -4.26674778992238
C            7.45295461832205       -6.65331445431795       -4.06523888064604
C            7.45265870004795       -5.45452789036085       -3.37620630878926
C            7.26526489923520       -3.34727119087305       -1.22562621654939
C            7.26090935540338       -2.15609239144345       -0.52994343956334
C            4.89297726871883        1.94557467153876        0.43778448674553
C            3.70633442110651        2.49330799953289        0.87129460985767
H           -1.87898739016637       -0.22160253834021        1.70667587594901
H           -4.10527788880738       -1.04636418326639        1.13464588649224
H           -5.91677463184073       -0.24969531019196        3.03621229032661
H           -6.82275243113531       -2.25473015619421        4.11350490711517
H           -6.52342941497548       -4.61778356210050        4.11851886153225
H           -7.43177708965958       -6.62239257685954        5.20962530093712
H           -9.72143991297658       -7.38674791150286        4.69136783085691
H          -11.09989356693273       -6.12076447755321        3.08169357526474
H          -10.20194904696654       -4.10310445314429        2.00634909051865
H           -8.55599315981516       -3.46754908134424        0.40150436011051
H           -7.65317033214834       -1.46018088147932       -0.67622775176291
H           -5.36201996161607        1.53730160274491       -1.77441481405973
H           -6.74330229766120        2.70888292716413       -3.42455852735738
H           -7.98673680606196        4.72386706930221       -3.66843701508900
H           -9.37054587349759        5.89944538444472       -5.32249250007666
H          -11.59599152203743        5.01842790418446       -5.92887251399994
H          -12.41896927453988        2.94255386674721       -4.87671501883727
H          -11.02721396096565        1.75239665543284       -3.23990418100202
H          -10.20778628342544        2.00877928888706       -1.02359745116026
H           -8.82684501566789        0.83422648702394        0.62611713749424
H           -5.45295771730654        2.97497476571150        0.57115246916555
H           -3.21627561994754        3.79988516475979        1.12736658650485
H           -1.76837342666446        3.92427743789297        3.09062404909595
H            2.29793724971889        3.78648722401296        2.93796249895411
H            2.01535321680656       -0.35404798824924        1.54919943683827
H            4.12281570347981       -1.32970895308055        0.79466010267051
H            8.29375599921860        0.17197543737013       -1.73664853541840
H           10.42506740695089        1.31111971623483       -1.33083618395433
H           10.29341313621758        4.34702743337596        1.83611975017651
H           12.42594113630425        5.49268538087067        2.25297381539529
H           14.55019753976757        4.45898877719613        1.53576212847052
H           14.52386782460483        2.26422585236824        0.40641672307701
H           12.39396782777021        1.10715182405328        0.00643596118949
H            9.08787079140330        2.42406049174651        2.57155956549300
H            6.95581975239008        1.28604843639039        2.16578492197618
H            4.47468057147147       -0.77783697403970       -1.86188776548629
H            4.48219638761208       -2.89940035147995       -3.08214440721857
H            4.15173618464138       -5.23015517046949       -2.69649466441114
H            4.15410806971596       -7.35625403613266       -3.92660109000373
H            6.26952644481526       -8.27955639073082       -4.80379410027072
H            8.38124731576391       -7.05143889414981       -4.44972156208726
H            8.37826834200544       -4.91448165773738       -3.23792241981154
H            8.04254425888976       -4.07129669895740       -1.02994898071857
H            8.03678151738481       -1.94668711676616        0.19209881399776
H            5.69773153206000        2.58987061111943        0.11667042574809
H            3.58605705124795        3.56671755924346        0.87502125552147
