116
 energy: -176.517367131251 gnorm: 0.000025450918 xtb: 6.7.1 (edcfbbe)
N           -0.01195462175786        0.19263891313101       -0.48300716704799
C            0.05894540099437        0.78217267497934        0.50027917623346
C            0.14298825819188        1.58083717409283        1.66344828605817
C           -1.02906041775240        2.11010601580973        2.23321017410955
C           -2.36409730151440        1.73052250502899        1.76692164126470
C           -2.69432074648198        0.39425512378509        1.54262247624801
C           -3.95745953516844        0.03891535639737        1.12283350450216
C           -4.93407148989750        1.01389073679778        0.90281835374696
N           -6.20856982758438        0.66023263094156        0.47079968604841
C           -6.79289487032007       -0.54213931503404        0.89261084605557
C           -6.62998141624735       -0.99087425229648        2.20313838797319
C           -7.21011553288374       -2.17300251046258        2.61354722983236
C           -7.98097433865863       -2.93851713138587        1.73934850962524
C           -8.59836639588623       -4.19713292485849        2.18110444845523
C           -7.90241080521540       -5.07904489628909        3.00627761757245
C           -8.48072658119387       -6.26577383444894        3.41732021426766
C           -9.76616765227894       -6.59084987279564        3.01615592321228
C          -10.46870716664877       -5.72123108649746        2.19813950084469
C           -9.89036758791157       -4.53601497524141        1.78264596787058
C           -8.14727249184911       -2.47852779054345        0.43354676729618
C           -7.55925085554275       -1.30442008061879        0.01150270769055
C           -6.91920487124723        1.50168204131876       -0.39771282132618
C           -6.26584388825641        2.16826201703270       -1.43389157361273
C           -6.97116079553953        2.98917019843180       -2.28930081306032
C           -8.34556208040192        3.17113526381225       -2.14196179725339
C           -9.09290328332910        4.04683108762282       -3.05673845335615
C           -8.82982393188460        4.03595901325497       -4.42532237127313
C           -9.53347182388257        4.85911627951266       -5.28510644530886
C          -10.50781157511526        5.71184202244597       -4.79264328889750
C          -10.77657634310976        5.73275299695983       -3.43387327335455
C          -10.07783448423170        4.90619440925497       -2.57333603078783
C           -8.99190704971717        2.50053588401587       -1.10461811178061
C           -8.29403183102295        1.67756841064030       -0.24500867627232
C           -4.60494365403874        2.35357185683941        1.12948004418014
C           -3.34406523683810        2.70189244817623        1.56069716063059
C           -0.86527762884455        3.02329353689950        3.27557538920200
N            0.30828466936945        3.39740372418849        3.75023824183250
C            1.40031680291257        2.87386645086140        3.22634206215993
C            1.39912741201906        1.95161182198675        2.17790686360047
C            2.64970934738340        1.40613880153018        1.65172005039805
C            2.77704946157476        0.04742742770389        1.36024808392146
C            3.95956201572351       -0.46450091281577        0.87465753894048
C            5.05848500837395        0.37029188386728        0.65155188524045
N            6.24918146371440       -0.14040569904970        0.14719994261335
C            6.23559459377406       -1.19906261529696       -0.77239284787514
C            7.21459634162458       -2.19093064037078       -0.72190805693412
C            7.20958996707396       -3.22466295866000       -1.63525891424746
C            6.23165156457861       -3.30565527904839       -2.62572673241649
C            6.23460280672232       -4.40490173500434       -3.60231318635965
C            6.53285245218340       -5.70813484530910       -3.20825943304800
C            6.53631782732900       -6.73998058242702       -4.12866325847110
C            6.24683649826167       -6.48829238034391       -5.45975108634925
C            5.95069779539266       -5.19674639895757       -5.86373276579891
C            5.94252366571548       -4.16447321406219       -4.94387537183290
C            5.25420387050127       -2.31222241720561       -2.66771481506707
C            5.25320777248884       -1.27374102212455       -1.75956698329348
C            7.47728065929292        0.40764357212871        0.54698391306011
C            8.51377810664905        0.57112948958994       -0.37121023304884
C            9.72213464073594        1.10370655106289        0.02799515239742
C            9.93754817595082        1.48968292299679        1.35037193964285
C           11.22698858072956        2.05725064237355        1.77115560171619
C           11.79880831105233        1.69877346798428        2.99068089046015
C           13.01255592997103        2.23148153394197        3.38422962350369
C           13.67499372707806        3.13460322888565        2.56905386483868
C           13.11563825715875        3.49988802861198        1.35551790844092
C           11.90370979147733        2.96542371241383        0.95875450577690
C            8.89678191211400        1.32213844432411        2.26287337220272
C            7.68593097071834        0.78918802155878        1.87200600859524
C            4.93487196756727        1.73085699705316        0.94979677799409
C            3.75465417466937        2.23470492859106        1.44870322822258
H           -1.95733987340347       -0.37748140955401        1.71240550451316
H           -4.19410601116417       -1.00067624532827        0.95259894628502
H           -6.04977467077776       -0.40170014184940        2.89859149399377
H           -7.08856451584761       -2.49373296847119        3.63781658538814
H           -6.89267605441951       -4.84104753614641        3.30865225139653
H           -7.92559539164540       -6.94199918656675        4.05190169303115
H          -10.21771709196541       -7.51771907866438        3.33890910368442
H          -11.47353025484586       -5.96701569596950        1.88505231763989
H          -10.45131990718420       -3.85542157711527        1.15848804475189
H           -8.72074361454485       -3.06494772342130       -0.26920715377369
H           -7.68551068647747       -0.97070479279736       -1.00813450446977
H           -5.20148151947097        2.03499863903259       -1.56456336475130
H           -6.44584742718646        3.50628800448817       -3.07880907939743
H           -8.08210552200768        3.36200152641157       -4.81833206137388
H           -9.32202923974787        4.83496692789309       -6.34475232983448
H          -11.05536674772683        6.35659384877359       -5.46464411372255
H          -11.53299535444693        6.39850718638196       -3.04305547832128
H          -10.28171891291371        4.93947768017153       -1.51270378686824
H          -10.05861083815311        2.61478170250374       -0.97893162726728
H           -8.81000972517115        1.16396826509569        0.55320624274038
H           -5.34979109304053        3.11874513664533        0.96914468140611
H           -3.10525215132403        3.74261892209668        1.72406391500193
H           -1.72869428235088        3.46323904566642        3.75656117603022
H            2.33334667800414        3.19394881829927        3.67046629859633
H            1.94938096025717       -0.62160022886558        1.54665248481963
H            4.04352593527917       -1.52124265769058        0.66963994534285
H            7.98061787170215       -2.14399484219136        0.03843700421233
H            7.98535867508911       -3.97466189403036       -1.58822600161397
H            6.74333529569323       -5.91573224035982       -2.16895517194716
H            6.76396843958208       -7.74614737522819       -3.80623187818520
H            6.25166134266558       -7.29485716354236       -6.17847664653847
H            5.72726353655366       -4.99294639351817       -6.90136325902880
H            5.72733944892821       -3.15696549686491       -5.26977044807441
H            4.47590211985423       -2.35894557919783       -3.41510033337876
H            4.48889212206488       -0.51170451756696       -1.81159155727233
H            8.36411300890554        0.27719364205431       -1.39988917085647
H           10.51739069253828        1.20987231471673       -0.69507048178103
H           11.29719031444307        0.98134651718773        3.62415956263151
H           13.44564953866672        1.93930154931141        4.33035600504580
H           14.62256633567056        3.55137108974736        2.87802874027332
H           13.62554675047619        4.20677573378430        0.71643025088946
H           11.46533279690668        3.26901293986287        0.01897224603872
H            9.03409295880017        1.62443908467826        3.29065726194086
H            6.89132611318429        0.66267435560005        2.59310411350647
H            5.77127442166166        2.39107892648229        0.77511240045108
H            3.67089144007207        3.29269400981435        1.64927821844119
