  85
       -126.42640083
 C         -7.2133919108       -4.9826466364        0.9444133359
 C         -6.5412916327       -3.6719540761        0.6685352228
 C         -7.0584098100       -2.7729783155       -0.2548996018
 C         -6.4325524858       -1.5690094972       -0.5117709582
 C         -5.2648660089       -1.2225120480        0.1673968984
 N         -4.6068900993       -0.0168175052       -0.0757159416
 C         -5.2884888314        1.1431926972       -0.4419835209
 C         -6.5843022694        1.4021135334        0.0056398274
 C         -7.2316550094        2.5633088734       -0.3656878037
 C         -6.6129325426        3.5072395837       -1.1762175796
 C         -7.3258637936        4.7583473788       -1.5910525508
 C         -5.3163939175        3.2510695990       -1.6066402797
 C         -4.6611723311        2.0895314762       -1.2527036034
 C         -3.2035282436        0.0271998773        0.0483988042
 C         -2.4074229792       -0.8042152811       -0.7592573816
 C         -2.9670079729       -1.6522915208       -1.7487715179
 C         -2.1831946583       -2.4697023437       -2.5041020587
 C         -0.7894958151       -2.5004046276       -2.3048590763
 C         -0.2108044430       -1.6781453903       -1.3878191730
 C         -0.9866905266       -0.7812750042       -0.6072457066
 C         -0.3940823724        0.1066229968        0.3016707460
 C          1.0760329433        0.1441380529        0.4390860201
 C          1.8709562504        0.6210957261       -0.6006180529
 C          3.2471982960        0.6511688772       -0.4793639916
 C          3.8479771762        0.1992408610        0.6879208722
 P          5.6518513242        0.1314041231        0.9370755546
 O          6.0572888359        0.2907147000        2.3403149944
 C          6.3552116624        1.3947162951       -0.1726506073
 C          6.5210968766        1.1945798579       -1.5369030375
 C          7.0537730488        2.2045833478       -2.3179337605
 C          7.4227773184        3.4098547711       -1.7414408104
 C          7.2653814479        3.6069601890       -0.3790809048
 C          6.7317835546        2.5993895676        0.4042101015
 C          6.1548575732       -1.4633473119        0.2080073065
 C          7.3188001385       -2.0372376013        0.7000525989
 C          7.7723409345       -3.2374419055        0.1837195434
 C          7.0606746153       -3.8659784756       -0.8256109225
 C          5.8952967502       -3.2970907748       -1.3138700638
 C          5.4399466801       -2.0957793736       -0.7999806589
 C          3.0618362047       -0.2694246190        1.7320233774
 C          1.6865309115       -0.2950990843        1.6113448233
 C         -1.1885074876        0.9556508613        1.0854344150
 C         -0.6146209185        1.8863629223        1.9907414438
 C         -1.3929669786        2.6679548910        2.7879725363
 C         -2.7959424397        2.5614219701        2.7324878526
 C         -3.3862282313        1.7092903738        1.8497880492
 C         -2.6125082833        0.8991817476        0.9802783468
 C         -4.7371644384       -2.1252580872        1.0916034994
 C         -5.3672006216       -3.3285918480        1.3302824680
 H         -8.1693497528       -5.0453717081        0.4307275767
 H         -7.3818504766       -5.1081873141        2.0130505164
 H         -6.5858924338       -5.8080581278        0.6082857417
 H         -7.9624124136       -3.0208807764       -0.7929018153
 H         -6.8411952234       -0.8957119025       -1.2509289921
 H         -7.0759201311        0.6951128082        0.6575414510
 H         -8.2348601062        2.7447879517       -0.0069139640
 H         -8.1278669945        4.9966745962       -0.8964718575
 H         -6.6363214019        5.5986663860       -1.6361206854
 H         -7.7629420473        4.6303027202       -2.5822343907
 H         -4.8132181434        3.9709014292       -2.2364140950
 H         -3.6561273087        1.9051080414       -1.6024833773
 H         -4.0336914345       -1.6395839051       -1.9047867745
 H         -2.6260888396       -3.1044435172       -3.2570984604
 H         -0.1849440967       -3.1773225620       -2.8904261982
 H          0.8576738086       -1.6993778149       -1.2353756421
 H          1.3987836472        0.9745598950       -1.5062290781
 H          3.8552981501        1.0330767874       -1.2867961182
 H          6.2462239855        0.2479419549       -1.9803619264
 H          7.1848826746        2.0506508649       -3.3792252273
 H          7.8402260412        4.1940361328       -2.3555769820
 H          7.5610839461        4.5430137163        0.0710934817
 H          6.6102484455        2.7219944161        1.4708086151
 H          7.8488524549       -1.5325297081        1.4951406528
 H          8.6777297229       -3.6840420627        0.5673644591
 H          7.4114872578       -4.8042602280       -1.2292413700
 H          5.3378722888       -3.7926050712       -2.0956310485
 H          4.5255162016       -1.6543991818       -1.1705966839
 H          3.5481328520       -0.6027081713        2.6376913762
 H          1.0739085025       -0.6631935967        2.4218173800
 H          0.4609330227        1.9647050628        2.0359184367
 H         -0.9402886070        3.3690682028        3.4734197518
 H         -3.4005750462        3.1653900988        3.3925483103
 H         -4.4613808887        1.6391943383        1.8101714295
 H         -3.8307380043       -1.8718761197        1.6214096915
 H         -4.9462456486       -4.0130495821        2.0529765069
