  89
       -135.01532298
 C         -6.5687306984       -3.2917652994        1.5925551714
 C         -5.6582271720       -2.4517172281        2.2118538444
 C         -4.4464083041       -2.1713424733        1.6124021884
 C         -4.1316303071       -2.7217602695        0.3705412920
 N         -2.9099473111       -2.4222772244       -0.2463661325
 C         -2.2095777502       -3.4144998619       -0.9377160090
 C         -2.2248755405       -4.7346585783       -0.4865684339
 C         -1.5323570887       -5.7135877388       -1.1717323777
 C         -0.8065200637       -5.3962059886       -2.3081494663
 C         -0.7854358776       -4.0866412405       -2.7593022053
 C         -1.4833034632       -3.1023507792       -2.0873170508
 C         -2.4000696560       -1.1224129528       -0.1581900828
 C         -1.0300059147       -0.9040317032       -0.0379009911
 C         -0.5291933981        0.3905095001        0.0479870910
 C          0.9199525308        0.6111958171        0.1531008335
 C          1.5320242302        1.6615303491       -0.5293398303
 C          2.8976302949        1.8428425857       -0.4655681279
 C          3.6917541912        0.9740116320        0.2812977514
 C          5.1311301938        1.1805374866        0.3066619767
 N          5.6917897042        2.3583960285        0.3044463693
 C          7.0398028597        2.1399567738        0.3716588850
 C          8.0981753548        3.0417284820        0.3917014766
 C          9.3761707047        2.5274976814        0.4410349170
 C          9.6124507728        1.1513012962        0.4603813597
 C          8.5773451539        0.2379108473        0.4439862099
 C          7.2894618212        0.7475723723        0.4154009561
 N          6.0494689275        0.1496470727        0.3726291077
 C          5.8025690179       -1.2289925127        0.2832934663
 C          6.3813412314       -2.0990753891        1.2008323895
 C          6.1390836954       -3.4577282253        1.1060081482
 C          5.3174423891       -3.9524173355        0.1074232038
 C          4.7417461577       -3.0846578879       -0.8066054012
 C          4.9868984907       -1.7269897576       -0.7286857317
 C          3.0797540418       -0.0517465559        0.9999338815
 C          1.7140164681       -0.2301787070        0.9299734984
 C         -1.4058015306        1.4688260416        0.0432934271
 C         -2.7782612021        1.2610029812       -0.0772208954
 N         -3.6605180080        2.3447788556       -0.0901425302
 C         -3.2901133894        3.5449633138       -0.7069195115
 C         -2.5172484391        3.5372334697       -1.8680347292
 C         -2.1459498455        4.7257134711       -2.4656833611
 C         -2.5450533124        5.9375892468       -1.9263739703
 C         -3.3195933865        5.9508756063       -0.7780802940
 C         -3.6877282886        4.7678375129       -0.1674527204
 C         -4.9256125668        2.2185231978        0.4966508822
 C         -5.0848780390        1.5007812946        1.6816918369
 C         -6.3354715751        1.3627745893        2.2499804969
 C         -7.4433130232        1.9462038504        1.6576144612
 C         -7.2891916044        2.6705544229        0.4871527292
 C         -6.0436470385        2.8044511114       -0.0951255963
 C         -3.2680466356       -0.0359039380       -0.1952648180
 C         -5.0507891961       -3.5677481427       -0.2481580219
 C         -6.2562501509       -3.8507815209        0.3642019161
 H         -7.5144112690       -3.5111515493        2.0644979051
 H         -5.8884498409       -2.0205275897        3.1748192642
 H         -3.7305794855       -1.5284230055        2.1028194004
 H         -2.7803933600       -4.9841747522        0.4056275835
 H         -1.5526499814       -6.7311638073       -0.8097578263
 H         -0.2634509252       -6.1635837239       -2.8387358279
 H         -0.2286915634       -3.8299172361       -3.6488374972
 H         -1.4737865103       -2.0849871529       -2.4499284158
 H         -0.3554370754       -1.7464218681       -0.0303978309
 H          0.9319025866        2.3262733863       -1.1332297462
 H          3.3753027157        2.6507718951       -0.9975261330
 H          7.9111839861        4.1030042175        0.3633890326
 H         10.2205576377        3.2007798521        0.4575323620
 H         10.6310853988        0.7933811694        0.4866192468
 H          8.7651101739       -0.8256139349        0.4456914803
 H          7.0033382006       -1.7050186913        1.9908646287
 H          6.5885152758       -4.1307743339        1.8209968932
 H          5.1252541800       -5.0126162379        0.0412850505
 H          4.1021999250       -3.4671116088       -1.5878590065
 H          4.5481534444       -1.0463145028       -1.4429620713
 H          3.6697038809       -0.7022290082        1.6288199689
 H          1.2519732132       -1.0217421946        1.5012818055
 H         -1.0274392894        2.4728766582        0.1580908053
 H         -2.2154395934        2.5934189688       -2.2982470429
 H         -1.5487138104        4.7050399728       -3.3655441800
 H         -2.2556177250        6.8643105868       -2.3981549750
 H         -3.6325814498        6.8910039519       -0.3480019063
 H         -4.2822638334        4.7816211564        0.7343218257
 H         -4.2196578614        1.0588488670        2.1529060113
 H         -6.4449222824        0.8044217513        3.1678139133
 H         -8.4193896120        1.8385906778        2.1058249772
 H         -8.1476422138        3.1276513182        0.0168933735
 H         -5.9282076734        3.3605700198       -1.0140559362
 H         -4.3284397870       -0.2006140269       -0.3148080120
 H         -4.8133726048       -3.9957424425       -1.2112629688
 H         -6.9615789309       -4.5049078648       -0.1270153078
