57
 energy: -102.637138525439 gnorm: 0.000118730578 xtb: 6.7.1 (edcfbbe)
O            5.53610590632005        2.28550466543221        0.76359017953038
C            5.93834773977609        1.21651626674806        0.34133605762178
C            7.28894782882703        1.08727574934387       -0.25987230028264
C            7.87209600359488        2.21731468588316       -0.83732495727900
C            9.11571691897102        2.13539010240156       -1.43765799069331
C            9.80079883861771        0.92964058821756       -1.46688841627821
C            9.24105084491528       -0.19650808170906       -0.88032111943388
C            7.99648429578398       -0.11020707724492       -0.29150723035499
S            7.29995377783570       -1.52099466150034        0.55509922869336
O            7.72683764126663       -2.74752004646581       -0.07598084796410
O            7.59543227635863       -1.38415139748069        1.96611614327210
C            5.54738433519255       -1.28217481074384        0.33243979431129
C            4.69031997416879       -2.36271649754073        0.27492930604625
C            3.32425768323557       -2.15536944781604        0.19260043618197
C            2.79985683636063       -0.86018754063747        0.19036776536591
C            1.35069676196187       -0.63538996760732        0.13069352216597
C            0.53111990101299       -1.44467765364774       -0.65687999612618
C           -0.83056569678332       -1.23496763241171       -0.71194087880075
C           -1.41939478944249       -0.21420666421732        0.03553115425461
N           -2.80459698002689       -0.00812823342470       -0.00674442835735
C           -3.67012884641454       -1.10387986005171       -0.05439754137194
C           -3.36440063255473       -2.27821865610902        0.63730542828181
C           -4.21419752348599       -3.36499094931925        0.58808115656332
C           -5.38272685535446       -3.28150693088549       -0.15098940846653
Br          -6.56922986926275       -4.78792811392246       -0.21585400950280
C           -5.70843290604969       -2.12651911585509       -0.84270309704141
C           -4.85189797961957       -1.04472737642348       -0.79648311182912
C           -3.31474709240247        1.29294897293164        0.01218429480308
C           -2.65124083176691        2.32173090093535       -0.66014392359735
C           -3.14929515968278        3.60916769701655       -0.64234591040779
C           -4.32166775122107        3.87500419633258        0.04576055657947
Br          -5.02096197635139        5.66137294662046        0.06669474327229
C           -4.99716468358060        2.87081700949192        0.71952598305514
C           -4.49178352335877        1.58611228034746        0.70429681017255
C           -0.60487862319703        0.59672991786625        0.82697221472536
C            0.75805102483676        0.39216184543209        0.86571686558083
C            3.68182813209220        0.21714389129837        0.25290814475253
C            5.05932941306638        0.02116188663463        0.31608321557988
H            7.32603177636718        3.14837257177497       -0.80692237323327
H            9.55317891621210        3.01551152133964       -1.88328468063522
H           10.76997277737215        0.86492451889886       -1.93657032320865
H            9.74857939008284       -1.14854870526447       -0.87376843860371
H            5.11226510938200       -3.35552032346267        0.29609790602324
H            2.65860758848418       -3.00368019702951        0.15842749226451
H            0.96955977895096       -2.22496600086973       -1.25976437808469
H           -1.44843257661112       -1.85897795557829       -1.34019482884583
H           -2.45818454105296       -2.33566978244009        1.22044830280258
H           -3.97471381129919       -4.26758852773506        1.12855060678158
H           -6.61817688347009       -2.07564339732074       -1.42064570764026
H           -5.09700676212901       -0.14768429086353       -1.34431208723583
H           -1.74322463066447        2.10830614204153       -1.20285689692826
H           -2.63465346171704        4.39885795841259       -1.16744341561687
H           -5.90477356314619        3.09177983890036        1.25955664334055
H           -5.00983125509869        0.80355691519032        1.23745263848561
H           -1.04963249130578        1.38346549245913        1.41784589560097
H            1.36776145673230        1.01425998083047        1.50296215018826
H            3.31447802981779        1.23226527968382        0.23051569015079
