  55
        -80.21007750
 C         -3.3067733715       -0.3693246220        2.3094112827
 C         -3.7677402801       -0.1040626863        0.8605055258
 C         -5.2836340413        0.0866530223        0.8690908688
 C         -3.3286865072       -1.2725073568        0.0014091304
 C         -4.1806697044       -2.2647095229       -0.4570497571
 C         -3.7047739532       -3.3266855414       -1.2069610084
 C         -2.3617241486       -3.3953676421       -1.5324649801
 C         -1.4982785005       -2.4070030910       -1.1046561235
 C         -1.9688615244       -1.3573456186       -0.3192461208
 N         -1.1222883896       -0.3162533557        0.0727798531
 C          0.2457171421       -0.4830875549        0.2169006890
 C          0.6843152103       -1.7121722054        0.7652449818
 C          2.0062580106       -1.9687318055        0.9256334631
 C          2.9669167264       -1.0240047536        0.5044017240
 C          4.3329566578       -1.3318000251        0.5950948310
 C          5.2895039047       -0.4403665212        0.1626809493
 C          6.6623492323       -0.7528831354        0.2533456635
 N          7.7796885291       -1.0032744848        0.3257567397
 C          4.8800290590        0.7915411621       -0.3893373208
 C          3.5559906424        1.1110702520       -0.4657671983
 C          2.5369066323        0.2350594869       -0.0101152783
 C          1.1449705008        0.5276884005       -0.0850832438
 C          0.6330492825        1.8974261074       -0.5142213104
 C          0.8078177245        2.0435292750       -2.0405301725
 C          1.3582657300        3.0160853043        0.2777144657
 C         -0.8577597544        2.0506206125       -0.2537688078
 C         -1.4583951082        3.2975813633       -0.3711187450
 C         -2.8137113577        3.4549326847       -0.1586926499
 C         -3.5918530641        2.3740910768        0.2206840099
 C         -3.0270072962        1.1184047867        0.3521231459
 C         -1.6657106576        0.9653662666        0.0606841464
 H         -3.5745090017        0.4726273996        2.9444051914
 H         -2.2296942469       -0.5074245015        2.3605361926
 H         -3.7879525591       -1.2664321969        2.6937170404
 H         -5.5520509848        0.9228900885        1.5096233752
 H         -5.6592672474        0.2727288687       -0.1346157246
 H         -5.7714233727       -0.7969736478        1.2728627861
 H         -5.2330184447       -2.2238616968       -0.2280265662
 H         -4.3851231232       -4.0947848954       -1.5420384211
 H         -1.9861652753       -4.2100118416       -2.1331955353
 H         -0.4568611218       -2.4382838576       -1.3888525333
 H         -0.0596755569       -2.4303415984        1.0758143121
 H          2.3405623721       -2.8967833197        1.3647386288
 H          4.6277594034       -2.2885955116        1.0026600670
 H          5.6305362635        1.4783944645       -0.7525098588
 H          3.2982794153        2.0572664337       -0.9066875916
 H          1.8370550855        1.8954134098       -2.3525499935
 H          0.1942788842        1.2990220147       -2.5462395395
 H          0.4798318283        3.0284746232       -2.3645309042
 H          0.6581043299        3.5203899438        0.9398966222
 H          2.1474069017        2.6130687608        0.9051830251
 H          1.7878307011        3.7617235024       -0.3872598775
 H         -0.8651891031        4.1555493013       -0.6480364173
 H         -3.2665125635        4.4282159456       -0.2729717770
 H         -4.6404486707        2.5281378524        0.4141222977
