55
 energy: -80.129467015642 gnorm: 0.000093313328 xtb: 6.7.1 (edcfbbe)
C           -3.37903379836337       -0.36458031942670        2.27447186619812
C           -3.79557121843649       -0.09751440774017        0.81097654668481
C           -5.31080794148441        0.09799065455177        0.77314917043625
C           -3.33521148978280       -1.26985766786945       -0.02818839915024
C           -4.17037036567169       -2.27870712691628       -0.47922276989957
C           -3.67464745343129       -3.34861069845453       -1.20586386545783
C           -2.32388872055097       -3.41399465699168       -1.50951450289623
C           -1.47366402769880       -2.41884388018283       -1.07834442598084
C           -1.96625918317403       -1.35316417871135       -0.32239284984548
N           -1.12474021897984       -0.30788405266327        0.05503126909179
C            0.22198079452144       -0.50141372963863        0.28497425488326
C            0.65604282728162       -1.69451531499728        0.84565567325527
C            1.99578091843746       -1.94169186456102        1.01270635378455
C            2.97053857745546       -1.02159474850324        0.52310693464173
C            4.31484796064273       -1.31777993246657        0.63282988327216
C            5.31265342511953       -0.41973279730578        0.14150624868674
C            6.66819786011138       -0.73300388004144        0.26080249563457
N            7.78800900716110       -0.98997354269162        0.36017160955972
C            4.90018694348695        0.75657143784365       -0.47071990674978
C            3.55940920874748        1.06697364840399       -0.58013694169541
C            2.53272787710089        0.21666623627020       -0.06174559401004
C            1.16879555376648        0.53841460093445       -0.07225797937854
C            0.63595203604611        1.88787823038920       -0.50209383177593
C            0.75960789243412        2.01158150525701       -2.04007026590030
C            1.38009804830117        3.02361333671804        0.24383382659704
C           -0.84259460167721        2.05804236152753       -0.21661001709452
C           -1.43175422164351        3.31269975379993       -0.30119227871760
C           -2.78706709745962        3.47528260625471       -0.09381879246899
C           -3.58249660218473        2.38821474008805        0.23898750142381
C           -3.03593159097954        1.12372923222423        0.33264485846603
C           -1.66622561859238        0.96640582092333        0.06031004362961
H           -3.65863992876895        0.48033557411800        2.90006562353615
H           -2.30504535690686       -0.51254354455109        2.35823800020809
H           -3.87930835255130       -1.25688490673360        2.64468046262089
H           -5.59762712335523        0.93123003515001        1.40907165786497
H           -5.65396646540727        0.28958310280076       -0.24105513463325
H           -5.81373786090443       -0.78524800084210        1.15784717187990
H           -5.22610488140860       -2.24366567879727       -0.26626345572137
H           -4.34445454733659       -4.12583639101405       -1.54020990613099
H           -1.93511558653467       -4.23460385455934       -2.09266128164620
H           -0.42657306960331       -2.44524097941983       -1.33883196984588
H           -0.07540185646224       -2.42235815777381        1.16647426231447
H            2.33186413891169       -2.84818926166982        1.48995403031194
H            4.62735121253222       -2.24016549690523        1.09833033477451
H            5.63955347193460        1.43407139114344       -0.87449258749413
H            3.30696065281277        1.97537372947042       -1.09753951736542
H            0.13610811115977        1.25456928965717       -2.51418775800260
H            0.41501307231240        2.98984232398127       -2.36737074641133
H            1.77923964878176        1.86445092491569       -2.37945303870774
H            1.54972914052516        3.87618039109591       -0.40893636280900
H            0.78846076788386        3.35343081983883        1.09562647499895
H            2.33717426857158        2.68921628774278        0.62913532488679
H           -0.82892563620406        4.17439823633335       -0.53934763672128
H           -3.22939720149861        4.45646654301685       -0.17419276931569
H           -4.63042162899950        2.54946988407122        0.42895802388108
