  68
       -100.02797710
 O          3.5545145175       -0.6451590022       -2.5232274665
 P          3.1476947209       -0.0854884599       -1.2272518439
 C          2.9781656561       -1.3530853666        0.0747216738
 C          2.6018330606       -1.0386007764        1.3754328456
 C          2.4413744825       -2.0468872098        2.3051435360
 C          2.6444825616       -3.3693953814        1.9402035297
 C          3.0025669054       -3.6846923178        0.6393428741
 C          3.1599639855       -2.6784411980       -0.2954901832
 C          4.3315032630        1.1465512152       -0.5808043883
 C          4.3205169200        2.4053645007       -1.1656877208
 C          5.2504111946        3.3541232080       -0.7831679589
 C          6.1960698436        3.0420106435        0.1812521559
 C          6.2148316343        1.7820349556        0.7563360258
 C          5.2847442930        0.8303242848        0.3739935327
 C          1.5289924597        0.6800832018       -1.2027072635
 C          1.1235975954        1.5853485194       -0.1891626514
 C         -0.1695591948        1.9938989022       -0.1206564988
 C         -1.1411307997        1.3155344618       -0.9315804393
 Si        -2.4451491240        0.2709576748       -0.0188098646
 C         -3.8304725048        0.0216493872       -1.2862492796
 C         -4.3852901831       -1.2341547836       -1.5077520874
 C         -5.4134309088       -1.4054067018       -2.4173444678
 C         -5.9050973715       -0.3192565538       -3.1221050770
 C         -5.3623578444        0.9377499595       -2.9126221068
 C         -4.3340889037        1.1041315176       -2.0031441431
 C         -3.0031416096        1.2756828540        1.4845548640
 C         -4.3051844738        1.7523315630        1.5808296628
 C         -4.7171393861        2.4701753501        2.6899167701
 C         -3.8297214696        2.7227497966        3.7219581821
 C         -2.5291420163        2.2525133331        3.6403605789
 C         -2.1224630154        1.5368233769        2.5292937997
 C         -1.7286770781       -1.3921003427        0.5285322335
 C         -1.1233706147       -2.2158620023       -0.4218627986
 C         -0.5097670929       -3.3966780154       -0.0543554204
 C         -0.4884275826       -3.7844489864        1.2756232118
 C         -1.0787278487       -2.9760979009        2.2328316534
 C         -1.6877396377       -1.7917738514        1.8631229714
 C         -0.6812136664        0.7204862877       -2.1587374969
 C          0.6123169408        0.3099166248       -2.2153127854
 H          2.4468035544       -0.0068983362        1.6557223520
 H          2.1562759923       -1.8043123647        3.3186384968
 H          2.5243977994       -4.1531618157        2.6736769752
 H          3.1603686143       -4.7152757537        0.3559710588
 H          3.4426517317       -2.8950050240       -1.3155191437
 H          3.5757630304        2.6232905837       -1.9205056785
 H          5.2422737120        4.3350125460       -1.2358489137
 H          6.9238912356        3.7817577927        0.4812294753
 H          6.9580011519        1.5395092613        1.5022017654
 H          5.2947760153       -0.1578700664        0.8136353769
 H          1.8746061674        2.0260870343        0.4536857701
 H         -0.4868962601        2.7485747575        0.5828653850
 H         -4.0045041173       -2.0851503049       -0.9614725048
 H         -5.8329118492       -2.3882761405       -2.5773515944
 H         -6.7074372601       -0.4519351037       -3.8332056936
 H         -5.7414616308        1.7886016682       -3.4605310652
 H         -3.9100613347        2.0861952188       -1.8468448989
 H         -5.0030922258        1.5557618442        0.7798208360
 H         -5.7330519663        2.8333539054        2.7489952808
 H         -4.1490140037        3.2846976190        4.5875165765
 H         -1.8326312095        2.4449668868        4.4439905215
 H         -1.1064567699        1.1721445073        2.4684614096
 H         -1.1350918809       -1.9220504671       -1.4611520611
 H         -0.0457058044       -4.0178589968       -0.8064904643
 H         -0.0194720221       -4.7136783718        1.5621928439
 H         -1.0678585876       -3.2730292901        3.2720342599
 H         -2.1544747025       -1.1735910244        2.6169044355
 H         -1.3828544090        0.5088707715       -2.9510632427
 H          0.9944600757       -0.2377556648       -3.0660757754
