61
 energy: -95.510741168007 gnorm: 0.000048309890 xtb: 6.7.1 (edcfbbe)
C           -4.93427807772575       -2.98864406230176        0.05767633280971
C           -4.17046351889087       -3.49177373282998       -0.98360897010575
C           -2.85470450057592       -3.08329695405738       -1.10752366146171
C           -2.34753257674775       -2.17124358721917       -0.18215834469164
C           -0.96387522231957       -1.67448654250364       -0.27215404280689
C            0.08435233467483       -2.54423533251693       -0.55462178113508
C            1.39315573461673       -2.10651837387306       -0.58157152938905
C            1.68484917268032       -0.77028328411739       -0.31645793263668
N            3.00859863594357       -0.32033924464321       -0.32955637536147
C            4.07055688792900       -0.92044527584317        0.32091633054393
C            4.08256706099098       -2.02238320912129        1.16370147304853
C            5.29291080654465       -2.40186790743108        1.71206816765947
C            6.46609787337631       -1.70141537091545        1.44136799702524
C            6.45533399479621       -0.58787814962938        0.62541681098343
C            5.25082861020949       -0.18715044429296        0.06269011206680
C            4.87505356431118        0.90495382892766       -0.79137992048092
C            5.58678554818685        1.93755808421955       -1.38739841322111
C            4.90779140830538        2.83010893858536       -2.19239077350045
C            3.54034600453681        2.69244337061516       -2.41872383921499
C            2.81085386208140        1.67309773427777       -1.83687846794367
C            3.48279770299928        0.78839882392424       -1.00592715921414
C            0.64704239434624        0.11603061798294       -0.04939543243904
C           -0.66951138644165       -0.32345112005125       -0.03343369248971
N           -1.69401451015507        0.59899890717699        0.20969627529439
C           -1.83603590753771        1.35814849305829        1.35316486330325
C           -0.99251546222324        1.47099168582631        2.44773311542808
C           -1.38276612281646        2.30485818369460        3.47826176044125
C           -2.58469858099470        3.00739311829642        3.42990011910387
C           -3.43639452239413        2.88455333128564        2.35019308899529
C           -3.06578894280280        2.05284114326292        1.30189631559060
C           -3.69263662871674        1.68251226677611        0.06383957107062
C           -4.89124195297204        2.02906851676762       -0.54504564376836
C           -5.19034063305021        1.48271194188875       -1.77730291534338
C           -4.30170696968097        0.61864304902192       -2.41306218243658
C           -3.10100013606336        0.26330409363307       -1.82965290842941
C           -2.81224591975776        0.78084662061353       -0.57549104592041
N           -3.08228218085381       -1.70148785389187        0.82219757512991
C           -4.33299634940366       -2.09860005415598        0.93503382926206
H           -5.96581272741729       -3.27706628835402        0.18455655201129
H           -4.59577990978953       -4.18828938491155       -1.69221452940737
H           -2.23715263448903       -3.44048514808508       -1.91785089728899
H           -0.13018097207995       -3.58767924496708       -0.73275415943170
H            2.19334578057654       -2.79154155039866       -0.81601124314937
H            3.17615178641171       -2.56072712894044        1.39635417865080
H            5.32877248197595       -3.25879087613975        2.36850464762989
H            7.39260595527815       -2.03190731895741        1.88671723680765
H            7.36094752918467       -0.03388708086485        0.42967940299122
H            6.64977449182993        2.03304704743628       -1.22521091889173
H            5.44152538136669        3.64218847749700       -2.66315860582233
H            3.03846867963586        3.39606696401655       -3.06636807779108
H            1.75530444580125        1.56612505439509       -2.03626992826606
H            0.86225210825103        1.15442508383042        0.15300377327730
H           -0.06663046665617        0.91818612975701        2.50098524451226
H           -0.74303581344900        2.41233263225378        4.34198595685042
H           -2.85325124564399        3.65066910594467        4.25485731261518
H           -4.37379265637382        3.41954854404788        2.31901602733127
H           -5.57278742552096        2.71307684637713       -0.06190009951364
H           -6.12088725044690        1.73374014336121       -2.26466426783373
H           -4.55507233304654        0.22098423336863       -3.38503528712342
H           -2.41056149657893       -0.39463813041870       -2.33669064766495
H           -4.87709620319736       -1.67733636067958        1.77045062373850
