61
 energy: -95.511487418341 gnorm: 0.000110627178 xtb: 6.7.1 (edcfbbe)
C           -4.89484452957010        3.23845906661829        0.03960644262441
C           -4.54935137159822        2.27702546512640        0.97655893571511
C           -3.26697248624202        1.76015387697930        0.96571113655337
C           -2.36952652527708        2.21806928668752       -0.00018582993956
C           -0.99454707928168        1.69741606413482       -0.09450759149787
C            0.05639796554969        2.58825965243710       -0.29208731648329
C            1.36472891874349        2.15442566172345       -0.33889540464178
C            1.65270613710866        0.79861927630319       -0.19281183713384
N            2.97614547263213        0.34817685175822       -0.22713712683040
C            3.46063711158880       -0.69243676933994       -0.99779856222987
C            2.80389890848647       -1.48697599534398       -1.92630893722158
C            3.54178680894226       -2.44992616777910       -2.58807653573022
C            4.90283332624217       -2.61902924522073       -2.34494261658721
C            5.56734146867810       -1.81377686669959       -1.44181973408391
C            4.84702134773359       -0.83886666901770       -0.76446396374991
C            5.20832191291499        0.16309885577056        0.19924780206216
C            6.40152432715726        0.49959586899191        0.82459250097804
C            6.39907242817023        1.52994531170483        1.74342308549909
C            5.22371795901472        2.21052871427795        2.05270180307347
C            4.02438724303420        1.89383792667736        1.44361344906178
C            4.02595526437948        0.87652181813624        0.50033374172250
C            0.61143042219393       -0.10838431068271       -0.03137467245602
C           -0.70539771507726        0.33010102488360        0.00724116093082
N           -1.73468140353113       -0.61549714839956        0.12689813980387
C           -2.82989793683634       -0.72266032681223       -0.70745063501802
C           -3.10962702934198       -0.04358841499717       -1.88427079122324
C           -4.28725260213734       -0.35092590802192       -2.53716080807956
C           -5.16093955185031       -1.31918025794359       -2.04630423349454
C           -4.87112954809000       -2.01912171696627       -0.89257427069870
C           -3.69505599126160       -1.72511210631798       -0.21488508128561
C           -3.08405637697496       -2.24255414221723        0.97781287420805
C           -3.45454457239752       -3.21226178065128        1.90015787841273
C           -2.62459668480486       -3.45284345334270        2.97706397172248
C           -1.44391346762791       -2.73336437648387        3.14771364576751
C           -1.05338242760814       -1.76327575062206        2.24425765834257
C           -1.87418362421821       -1.53148581612564        1.15028907101842
N           -2.69469977795219        3.16806400556807       -0.87262729923692
C           -3.91878186027430        3.65778049436166       -0.85104756225271
H           -5.88810673765008        3.65786211197864        0.00815901562829
H           -5.26837895259252        1.93467087580562        1.70675673326652
H           -2.96394698908418        1.02879945558691        1.69925027058036
H           -0.17711421241017        3.63548974490528       -0.40469251037313
H            2.16833104127750        2.85527724157991       -0.50443130836660
H            1.75427910074226       -1.35233457535795       -2.13963832991683
H            3.05188732160602       -3.08292326843478       -3.31313863351225
H            5.44340547586940       -3.38513228013632       -2.88052775257221
H            6.62588035081238       -1.93183646506538       -1.26592933812029
H            7.30867703344583       -0.03943254096633        0.59677948744299
H            7.31674476951670        1.80971984026294        2.23899712544379
H            5.24912382118731        3.00153990122204        2.78767559308293
H            3.11602592527786        2.41605208981087        1.70403905196787
H            0.82270650086457       -1.16295297605179        0.06280256103407
H           -2.43436784848156        0.70100323184825       -2.27724043184227
H           -4.53425299538283        0.16951231333185       -3.45056760527365
H           -6.07290958246894       -1.52826679743941       -2.58556784604711
H           -5.54005778663794       -2.78116185120434       -0.52180283126429
H           -4.37578842556259       -3.76109606539744        1.77540996951693
H           -2.89387359997478       -4.20396142726614        3.70462723269230
H           -0.82103711756592       -2.93584764501470        4.00645976494271
H           -0.14370643178527       -1.20018688185839        2.39151569081558
H           -4.12409983369437        4.42313818417813       -1.58874832513122
