  45
  -70.2326960819000       0.226110475606693      !
 C          7.5888314370        1.6378817003        0.3632245770
 O          7.0824819904        0.4991370232       -0.2903967166
 C          5.7371538956        0.2923982200       -0.2811330539
 C          5.3115890353       -0.8708407194       -0.9648897470
 C          3.9912530217       -1.1969626317       -1.0267409904
 C          3.0127116938       -0.3853018269       -0.4100742846
 C          1.6441508519       -0.7046634349       -0.4512958681
 C          0.7091231681        0.0964220915        0.1670492907
 C         -0.7132906463       -0.1934418610        0.1483728475
 N         -1.6432338398        0.7353542453        0.0474680553
 C         -2.8467269046        0.1257722715        0.0054424204
 C         -4.0697476293        0.8949015633       -0.1403890872
 C         -5.2141841863        0.3662308712       -0.7357430590
 C         -6.3593953974        1.1316772191       -0.8509198519
 C         -6.3804925914        2.4354564155       -0.3842780063
 C         -5.2400625392        2.9773710891        0.1874349388
 C         -4.0945328829        2.2165395969        0.3071872328
 C         -2.6630093420       -1.2571302901        0.1238219579
 C         -3.4994763276       -2.3804030745        0.2402436828
 C         -2.9515639292       -3.6145115484        0.4259474252
 C         -1.5452602406       -3.7530968645        0.5354699049
 C         -0.7392502421       -2.6677649188        0.4422478121
 N         -1.2786188382       -1.4377410924        0.2140893587
 C          1.1351981559        1.2800459755        0.8115459842
 C          2.4565015619        1.6114816859        0.8616136925
 C          3.4363177023        0.7866112471        0.2672191009
 C          4.8080042420        1.1051569763        0.3210764166
 H          7.3565262566        1.6221879510        1.4327732154
 H          8.6679166970        1.5995818853        0.2295104320
 H          7.2010475066        2.5606039732       -0.0799988304
 H          6.0684430600       -1.4839125891       -1.4280128906
 H          3.6753802877       -2.0879857271       -1.5501013489
 H          1.3422425451       -1.5752310214       -1.0166425806
 H         -5.1992454034       -0.6351729606       -1.1382054983
 H         -7.2403777015        0.7104685116       -1.3140015765
 H         -7.2789708688        3.0282028265       -0.4727704714
 H         -5.2479740869        3.9980620933        0.5420866796
 H         -3.1984046022        2.6269983184        0.7452702700
 H         -4.5673559461       -2.2407905653        0.2053517586
 H         -3.5768688015       -4.4880798435        0.5171714722
 H         -1.1142800771       -4.7246354494        0.7145378815
 H          0.3299631044       -2.7142669877        0.5728154962
 H          0.3823840791        1.9094687408        1.2591329819
 H          2.7728569616        2.5166724915        1.3600398021
 H          5.0968380764        2.0039570406        0.8435681625
  45
  -70.2326900736000       0.224677436464396      !
 C          7.5684074001        1.7249479537        0.1813804626
 O          7.0829290956        0.5040136645       -0.3226953061
 C          5.7399656493        0.2820230367       -0.2994673295
 C          5.3358344463       -0.9686584634       -0.8232170072
 C          4.0198588623       -1.3158588701       -0.8563222459
 C          3.0244809344       -0.4408849077       -0.3659654492
 C          1.6597430511       -0.7796535309       -0.3804995892
 C          0.7089634206        0.0823160718        0.1212777538
 C         -0.7120180055       -0.2123325182        0.1320245164
 N         -1.6374886712        0.7131433954       -0.0301021751
 C         -2.8470529093        0.1177866947        0.0215038177
 C         -4.0657065991        0.8941948629       -0.1243602526
 C         -4.0179624870        2.0981575312       -0.8286663031
 C         -5.1530945034        2.8689648124       -0.9794962613
 C         -6.3555056556        2.4544542492       -0.4287378733
 C         -6.4088775137        1.2705900777        0.2878905588
 C         -5.2744950090        0.4964266339        0.4448891035
 C         -2.6707201977       -1.2565612384        0.2204084849
 C         -3.5077783654       -2.3834526505        0.2893124523
 C         -2.9670575460       -3.6127927706        0.5207091761
 C         -1.5689903613       -3.7416952735        0.7167023553
 C         -0.7579231359       -2.6621115502        0.6040460652
 N         -1.2862607740       -1.4422580469        0.3044031198
 C          1.1158684705        1.3457341632        0.6093362584
 C          2.4319911418        1.6990100747        0.6250971147
 C          3.4275049533        0.8153717263        0.1541652360
 C          4.7946164284        1.1560351577        0.1783272473
 H          7.3271940589        1.8439786720        1.2425361548
 H          8.6492184565        1.6861768431        0.0590127933
 H          7.1703441753        2.5765069290       -0.3794442820
 H          6.1050283798       -1.6290346996       -1.1917919373
 H          3.7203832602       -2.2731696228       -1.2586217080
 H          1.3767307267       -1.7195122073       -0.8329397458
 H         -3.0742755695        2.4089802227       -1.2489343111
 H         -5.1039930354        3.7974152199       -1.5300119098
 H         -7.2449675405        3.0554337084       -0.5490836216
 H         -7.3401394384        0.9523928328        0.7347227479
 H         -5.3211730342       -0.4039184919        1.0383909634
 H         -4.5679653133       -2.2543439972        0.1459912789
 H         -3.5912023407       -4.4904571945        0.5722292078
 H         -1.1467829572       -4.7045608161        0.9538543454
 H          0.3072654521       -2.7065924244        0.7637723885
 H          0.3500728895        2.0175509202        0.9637166433
 H          2.7325837535        2.6662921617        1.0018340526
 H          5.0670544849        2.1186702535        0.5828883519
  45
  -70.2326574635000       0.217056549917305      !
 C          7.5564207402        1.7459440361        0.2497937721
 O          7.0664382727        0.5729652713       -0.3540150131
 C          5.7281288018        0.3297998839       -0.3038772257
 C          5.3160639407       -0.8587097904       -0.9514218472
 C          4.0024951749       -1.2156676477       -0.9798601941
 C          3.0172940368       -0.4112271123       -0.3644507484
 C          1.6531858651       -0.7517155443       -0.3889344559
 C          0.7109081866        0.0490481183        0.2186338171
 C         -0.7116605691       -0.2368848774        0.1909649892
 N         -1.6297202855        0.7039577985        0.0881818641
 C         -2.8391888691        0.1099224452        0.0213024847
 C         -4.0478936080        0.8988718201       -0.1376941841
 C         -5.1849052335        0.3995341542       -0.7709858917
 C         -6.3125684380        1.1877230644       -0.9052252983
 C         -6.3232851464        2.4841999053       -0.4183843855
 C         -5.1901946385        2.9961090789        0.1939334217
 C         -4.0618969317        2.2130555505        0.3315635269
 C         -2.6734512762       -1.2763093142        0.1244771906
 C         -3.5259864902       -2.3896729192        0.2139826545
 C         -2.9967321518       -3.6328854122        0.3930795960
 C         -1.5940812743       -3.7905662656        0.5217429844
 C         -0.7727149254       -2.7148258324        0.4535552862
 N         -1.2924951224       -1.4749853099        0.2329275674
 C          1.1266086586        1.2450829832        0.8475899863
 C          2.4430028740        1.5961104237        0.8822817314
 C          3.4287161899        0.7802641365        0.2854980948
 C          4.7934056216        1.1305462136        0.3053563432
 H          7.1216026646        2.6417834523       -0.2050707371
 H          7.3608017243        1.7534553272        1.3268709856
 H          8.6314493555        1.7394929535        0.0783219912
 H          6.0772914832       -1.4633209725       -1.4190011751
 H          3.6972046726       -2.1246917701       -1.4780349054
 H          1.3608934680       -1.6358594713       -0.9378744371
 H         -5.1764779620       -0.5960369711       -1.1881167746
 H         -7.1872165973        0.7908411483       -1.4007173058
 H         -7.2072538617        3.0957208665       -0.5249568991
 H         -5.1895702278        4.0111237813        0.5644155138
 H         -3.1709341652        2.6001070739        0.8005508140
 H         -4.5912076951       -2.2351185229        0.1622942000
 H         -3.6341966554       -4.4996513346        0.4633575257
 H         -1.1783927567       -4.7696278459        0.6959118496
 H          0.2936480069       -2.7774255223        0.5994217939
 H          0.3682160006        1.8703519480        1.2914981669
 H          2.7504850158        2.5118240396        1.3668961477
 H          5.0718778026        2.0442394715        0.8074137738
  45
  -70.2322204456000       0.136688939660068      !
 C          7.4678141195        1.9480298347        0.0179636588
 O          7.0248669503        0.6997915787       -0.4579982292
 C          5.7040783826        0.3935552176       -0.3344875763
 C          5.3230870668       -0.8425664798       -0.9072928528
 C          4.0249785260       -1.2526750257       -0.8767796366
 C          3.0249606844       -0.4571804417       -0.2735930556
 C          1.6699224389       -0.8344576026       -0.2722617260
 C          0.7116559077       -0.0338571917        0.3099400046
 C         -0.7105664852       -0.3164312485        0.2656209349
 N         -1.6092056347        0.6433941452        0.1619289489
 C         -2.8274241846        0.0762387935        0.0503575554
 C         -4.0068050653        0.9038090027       -0.1304262585
 C         -5.1482129216        0.4500402626       -0.7891418403
 C         -6.2376949886        1.2850498458       -0.9535330403
 C         -6.2055774035        2.5830444265       -0.4717985240
 C         -5.0683654808        3.0484181210        0.1693606477
 C         -3.9786615903        2.2186793519        0.3374652083
 C         -2.6901547210       -1.3152012904        0.1244206205
 C         -3.5649451430       -2.4139860314        0.1574424977
 C         -3.0643575624       -3.6723375698        0.3125689394
 C         -1.6693174874       -3.8606535182        0.4758044950
 C         -0.8264668906       -2.7993001206        0.4632703264
 N         -1.3156553042       -1.5434260993        0.2643533305
 C          1.1056869659        1.1858039721        0.9086190709
 C          2.4117337869        1.5728296508        0.9167339969
 C          3.4097490244        0.7714253031        0.3210258646
 C          4.7581290710        1.1772541192        0.2796463828
 H          8.5268035828        1.9998909461       -0.2285687343
 H          6.9399524196        2.7720272500       -0.4730775495
 H          7.3436564274        2.0318883322        1.1023804653
 H          6.0938742627       -1.4377520704       -1.3713728217
 H          3.7428407800       -2.1950318301       -1.3241682181
 H          1.3982420799       -1.7433163738       -0.7901286082
 H         -5.1726489726       -0.5464679616       -1.2031667634
 H         -7.1157945890        0.9236627626       -1.4696317346
 H         -7.0593666841        3.2314533846       -0.6035719866
 H         -5.0337738822        4.0638232006        0.5372466991
 H         -3.0838288068        2.5692269272        0.8271249816
 H         -4.6253314393       -2.2376425139        0.0815756470
 H         -3.7197101181       -4.5281520319        0.3384080105
 H         -1.2769595421       -4.8522874804        0.6321958290
 H          0.2336135482       -2.8882469489        0.6377082608
 H          0.3361334651        1.8028091157        1.3443829166
 H          2.7003250311        2.5098070084        1.3714418457
 H          5.0139305672        2.1215787523        0.7347797020
  45
  -70.2312287632000       4.786165351066422E-002 !
 C          8.0462179314        0.2091580848        0.4508751450
 O          7.0013825103        0.9220768167       -0.1666310092
 C          5.7172143255        0.5053116669        0.0193332061
 C          5.3514046261       -0.6139974400        0.7929928081
 C          4.0347105126       -0.9607787478        0.9212915512
 C          3.0147542271       -0.2221181847        0.2911964552
 C          1.6560116412       -0.5722754727        0.4068698032
 C          0.6796938580        0.1585309215       -0.2312146455
 C         -0.7334172020       -0.1609619972       -0.1419296380
 N         -1.6819808055        0.7538829857       -0.1014779090
 C         -2.8724000223        0.1258198851       -0.0036341331
 C         -4.1113753592        0.8803416373        0.0667923034
 C         -4.0823414829        2.1809190956        0.5721486767
 C         -5.2397818226        2.9288994769        0.6520171339
 C         -6.4458086189        2.3950035942        0.2260435070
 C         -6.4813409050        1.1125643834       -0.2958718425
 C         -5.3249300695        0.3599617943       -0.3805894538
 C         -2.6581616700       -1.2571071163        0.0246782008
 C         -3.4586621382       -2.4021781025        0.1786644081
 C         -2.8847733262       -3.6374800186        0.1363373508
 C         -1.4902478157       -3.7594867017       -0.0887207868
 C         -0.7125981021       -2.6546103137       -0.1904435657
 N         -1.2722314344       -1.4170127958       -0.0808041479
 C          1.0497230224        1.3064308188       -0.9732182519
 C          2.3565371052        1.6683066552       -1.0960838014
 C          3.3813972280        0.9111318802       -0.4826164236
 C          4.7367002463        1.2494918217       -0.6025323135
 H          7.9532155091        0.2204413113        1.5416751401
 H          8.0920222691       -0.8264027747        0.0982121912
 H          8.9609723248        0.7254722255        0.1642769792
 H          6.1050151881       -1.2053385849        1.2890503579
 H          3.7631337071       -1.8214399995        1.5164634840
 H          1.3993860914       -1.4080187789        1.0427213827
 H         -3.1356903701        2.5841413721        0.8964330134
 H         -5.2054157717        3.9329761152        1.0493793875
 H         -7.3527491700        2.9779523379        0.2927047664
 H         -7.4164354335        0.6983906035       -0.6459158073
 H         -5.3592911235       -0.6227900180       -0.8255213407
 H         -4.5171066696       -2.2796185859        0.3397313043
 H         -3.4803204736       -4.5281201523        0.2571465836
 H         -1.0443693630       -4.7368037890       -0.1764870848
 H          0.3481531739       -2.6946267652       -0.3794018093
 H          0.2615289010        1.8812342619       -1.4335232087
 H          2.6322612942        2.5428671484       -1.6670839334
 H          5.0278325373        2.1068863187       -1.1892677973
  45
  -70.2312283763000       4.784206221468545E-002 !
 C          8.0394358363        0.2048183820       -0.5713746347
 O          6.9990446199        0.9476389973        0.0177231099
 C          5.7151586712        0.5125022772       -0.1218074307
 C          5.3447401161       -0.6565276242       -0.8154628488
 C          4.0283507230       -1.0176482912       -0.9013613488
 C          3.0127858225       -0.2442638747       -0.3067192026
 C          1.6540346333       -0.6057668339       -0.3817409077
 C          0.6826403304        0.1640431619        0.2167024031
 C         -0.7312837664       -0.1600131398        0.1647322056
 N         -1.6782745241        0.7513873991        0.0615775362
 C         -2.8683808950        0.1193677387       -0.0082027432
 C         -4.1035855313        0.8683721153       -0.1564653584
 C         -4.1575498853        2.1796829347        0.3181097624
 C         -5.3150215253        2.9222746016        0.2004559441
 C         -6.4384157029        2.3721358365       -0.3964817280
 C         -6.3880600158        1.0793364975       -0.8903330442
 C         -5.2307578775        0.3318989564       -0.7768802898
 C         -2.6590950369       -1.2611345224        0.0940566340
 C         -3.4760784357       -2.4009626278        0.1841078526
 C         -2.9081342456       -3.6265289684        0.3658425622
 C         -1.5012706812       -3.7396581273        0.4956658005
 C         -0.7142715687       -2.6386659360        0.4258673551
 N         -1.2728019171       -1.4160648943        0.2038687716
 C          1.0578052261        1.3586344108        0.8777882338
 C          2.3645368857        1.7309575543        0.9621810069
 C          3.3843568010        0.9387164350        0.3861043684
 C          4.7391955641        1.2902542451        0.4650324958
 H          7.9283062776        0.1467030529       -1.6589485239
 H          8.9544140153        0.7448854545       -0.3333630469
 H          8.0997692826       -0.8061046299       -0.1552116111
 H          6.0946093924       -1.2747622795       -1.2836850782
 H          3.7537025681       -1.9164294240       -1.4357051934
 H          1.3924417918       -1.4826965488       -0.9575587469
 H         -3.2743036164        2.5962712710        0.7762713814
 H         -5.3454814456        3.9349126752        0.5761190675
 H         -7.3459560864        2.9511091399       -0.4850840686
 H         -7.2555508090        0.6527793642       -1.3736570386
 H         -5.1932267565       -0.6607110787       -1.1992473528
 H         -4.5455645806       -2.2802442533        0.1323279207
 H         -3.5180588647       -4.5126978045        0.4384728597
 H         -1.0551484014       -4.7046312313        0.6728774715
 H          0.3534119891       -2.6669528679        0.5727672675
 H          0.2737682155        1.9612208508        1.3083749460
 H          2.6440221528        2.6410404657        1.4726958653
 H          5.0334293411        2.1854515210        0.9904111012
  45
  -70.2310424503000       3.929743623943424E-002 !
 C          7.6774034415        1.7987392797       -0.8757517038
 O          6.9421962668        0.9471323820       -0.0293651415
 C          5.5948055249        0.8436808350       -0.2055658684
 C          4.8728456473        1.5189116510       -1.2107323310
 C          3.5189469019        1.3591140396       -1.3114883491
 C          2.8090214833        0.5261921227       -0.4242395781
 C          1.4173679492        0.3525322586       -0.5080818586
 C          0.7459549513       -0.4680690540        0.3708943691
 C         -0.6979337829       -0.5799642018        0.2635019408
 N         -1.4755810109        0.4287773468       -0.0757339914
 C         -2.7582101890        0.0114530132       -0.0213179154
 C         -3.8479930185        0.9245697038       -0.3161365460
 C         -5.1209670609        0.7711617056        0.2307147454
 C         -6.1269789639        1.6672105263       -0.0793333152
 C         -5.8800510332        2.7316712104       -0.9299979995
 C         -4.6117711509        2.9047779588       -1.4610501911
 C         -3.6040320053        2.0124467844       -1.1560094905
 C         -2.7835194595       -1.3411146094        0.3387329760
 C         -3.7700649650       -2.3331872071        0.4702944294
 C         -3.4068540270       -3.6117189108        0.7724219826
 C         -2.0358720797       -3.9403376242        0.9181333782
 C         -1.0826295880       -2.9884542414        0.7726204913
 N         -1.4421789941       -1.6997306265        0.5150176224
 C          1.4708670964       -1.1213931269        1.3948675756
 C          2.8231144892       -0.9728534318        1.4937324963
 C          3.5361868711       -0.1566373836        0.5877565696
 C          4.9251961299        0.0184653457        0.6725815081
 H          7.3419691789        2.8376382486       -0.7925540398
 H          8.7095031052        1.7275806110       -0.5361526399
 H          7.6196209562        1.4781798561       -1.9211161269
 H          5.3828165863        2.1665744946       -1.9062902574
 H          2.9710579830        1.8798722257       -2.0833286180
 H          0.8590027608        0.8731906605       -1.2706921706
 H         -5.3171074938       -0.0317385020        0.9249653322
 H         -7.1096137635        1.5390280684        0.3520865831
 H         -6.6701456639        3.4279339788       -1.1704113870
 H         -4.4108675347        3.7408244296       -2.1156006445
 H         -2.6104831380        2.1373428876       -1.5572643299
 H         -4.8012300085       -2.0677368111        0.3050687523
 H         -4.1493383356       -4.3865068058        0.8770886676
 H         -1.7471637409       -4.9581579792        1.1239723231
 H         -0.0264629565       -3.2000877232        0.8211948855
 H          0.9418292839       -1.7075490242        2.1324740931
 H          3.3695272605       -1.4682441453        2.2835801127
 H          5.4879100851       -0.4931644579        1.4381875984
  45
  -70.2309983745000       3.750665923926193E-002 !
 C          7.7119460516        1.6319049264       -1.0242636684
 O          6.9637927574        0.8536226452       -0.1207141301
 C          5.6104322908        0.7898327747       -0.2668170805
 C          4.8885756637        1.4634420768       -1.2732539953
 C          3.5291916038        1.3385959660       -1.3468291001
 C          2.8133505297        0.5415522710       -0.4317486677
 C          1.4178723065        0.3887141968       -0.4991304245
 C          0.7442499649       -0.4079096209        0.3996128026
 C         -0.7001946339       -0.5252116674        0.2981025496
 N         -1.4895781191        0.4703660256       -0.0518445015
 C         -2.7651212439        0.0278465423       -0.0257600690
 C         -3.8680471255        0.9113273699       -0.3603741179
 C         -5.0735365408        0.4354355958       -0.8740542557
 C         -6.0981203987        1.3121105526       -1.1782047199
 C         -5.9354962353        2.6737517564       -0.9850509257
 C         -4.7319998076        3.1580728970       -0.4972175675
 C         -3.7065990262        2.2869649314       -0.1889108754
 C         -2.7747410293       -1.3154121425        0.3672003580
 C         -3.7554236735       -2.2845212102        0.6410919096
 C         -3.3782248426       -3.5446317356        0.9974311390
 C         -2.0014194353       -3.8764950088        1.0661310077
 C         -1.0565703049       -2.9307665153        0.8462530994
 N         -1.4299183781       -1.6527729625        0.5550853299
 C          1.4677749293       -1.0461971348        1.4340647392
 C          2.8224308284       -0.9143114187        1.5196520291
 C          3.5396694035       -0.1333341299        0.5863491527
 C          4.9338972751        0.0077972677        0.6449065682
 H          7.4308418192        2.6888530677       -0.9759816592
 H          8.7497041322        1.5229452983       -0.7131657517
 H          7.6047436295        1.2712835021       -2.0524215769
 H          5.4033284576        2.0810034386       -1.9924841908
 H          2.9817036343        1.8572848091       -2.1203796268
 H          0.8598727574        0.9001719248       -1.2684778631
 H         -5.1997344563       -0.6192358080       -1.0654190993
 H         -7.0284262909        0.9311417492       -1.5755229861
 H         -6.7400141442        3.3544249561       -1.2222103408
 H         -4.5964025476        4.2206419504       -0.3560833264
 H         -2.7631440067        2.6488776055        0.1887834080
 H         -4.7946147576       -2.0076926090        0.5736824796
 H         -4.1150542634       -4.3009858583        1.2151001142
 H         -1.7035793062       -4.8862160217        1.2971582382
 H          0.0016973349       -3.1363029494        0.8704913243
 H          0.9355846121       -1.6083150020        2.1880130288
 H          3.3683942769       -1.3997000431        2.3159469968
 H          5.4958899286       -0.5005531955        1.4130854438
  45
  -70.2305345490000       2.295878714749212E-002 !
 C          7.8813118842        0.4756284993       -1.1242746337
 O          6.9082971386        1.0967496351       -0.3187198902
 C          5.6450613597        0.5856896642       -0.2980158617
 C          5.2560026984       -0.5925717991       -0.9657992241
 C          3.9591212260       -1.0220031226       -0.9042269046
 C          2.9793704168       -0.3024661089       -0.1933095067
 C          1.6275200576       -0.6949692851       -0.1758289059
 C          0.6823330292        0.0573906732        0.4826779505
 C         -0.7371784933       -0.2436680247        0.4146115654
 N         -1.6527125978        0.6858350552        0.2404368126
 C         -2.8555926556        0.0826806431        0.1185551392
 C         -4.0382275626        0.8818262881       -0.1482352712
 C         -3.8575134455        2.1695854275       -0.6593159354
 C         -4.9414640241        2.9706297181       -0.9528844516
 C         -6.2294855570        2.5032484695       -0.7435321921
 C         -6.4198324199        1.2362752792       -0.2183203402
 C         -5.3366577393        0.4316231724        0.0838029931
 C         -2.6813469880       -1.3029774815        0.2287094085
 C         -3.4977592900       -2.4446937090        0.1489213104
 C         -2.9554635570       -3.6809515172        0.3372118956
 C         -1.5747757428       -3.8122388284        0.6313245902
 C         -0.7779327944       -2.7172787110        0.6688508127
 N         -1.3072539199       -1.4852136595        0.4293729421
 C          1.0804723221        1.2324289644        1.1631152313
 C          2.3850997537        1.6226747825        1.1766961474
 C          3.3724449820        0.8794378494        0.4897040312
 C          4.7108209801        1.2931264520        0.4286715635
 H          7.5767403027        0.4510017855       -2.1756557303
 H          8.7765075984        1.0873599296       -1.0248895079
 H          8.1011616505       -0.5412420890       -0.7832741236
 H          5.9761851995       -1.1630887470       -1.5310954508
 H          3.6688537142       -1.9259688892       -1.4211082221
 H          1.3425492553       -1.5715887010       -0.7413405437
 H         -2.8489604651        2.5168241036       -0.8193568782
 H         -4.7849164288        3.9630900018       -1.3504385195
 H         -7.0796977326        3.1252282720       -0.9822399586
 H         -7.4218279387        0.8738129393       -0.0372283344
 H         -5.5046431305       -0.5386706685        0.5242641762
 H         -4.5457116167       -2.3252508270       -0.0700448244
 H         -3.5683517939       -4.5660684911        0.2768299551
 H         -1.1564074996       -4.7871636893        0.8211619936
 H          0.2754348435       -2.7556576488        0.8982840419
 H          0.3171439062        1.8108361929        1.6595423620
 H          2.6839816217        2.5203951267        1.6979143809
 H          5.0204137763        2.1915252544        0.9396891401
