  97
       -161.51540432
 F         -4.1399158743       -5.3935282051       -2.7092114683
 C         -4.2461655578       -5.1789340744       -1.3871072723
 F         -5.1987127068       -6.0138984949       -0.9420153102
 F         -3.0865890513       -5.6237140966       -0.8500546842
 C         -4.5135237936       -3.7468917019       -1.0475289693
 C         -3.9657725272       -2.7380646451       -1.8388537447
 C         -4.1715260875       -1.4184951091       -1.5066066790
 C         -4.9309256835       -1.0879738016       -0.3767807251
 N         -5.1101119440        0.2497403354       -0.0314825366
 C         -4.0681093790        1.1867243366        0.1543041544
 C         -2.6898200284        0.9349164908        0.2077750840
 C         -2.0844383498       -0.3423176980        0.3770095551
 C         -0.7294416708       -0.4775065908        0.4093969671
 C          0.1441043024        0.6315891170        0.2921389837
 C          1.5712069486        0.4636034481        0.3086611056
 C          2.4328868969        1.4973857295        0.7301571182
 C          3.7949766976        1.3299377176        0.7603094475
 C          4.3625368751        0.1179390369        0.3607691345
 N          5.7519797269       -0.0606984302        0.3751536020
 C          6.4476770521       -1.1089178893        0.9365945348
 C          5.8666809812       -2.1932110422        1.7063713838
 C          4.7439834832       -2.0223300550        2.5163191147
 C          4.2420931127       -3.0889962734        3.2375336998
 C          4.8531621268       -4.3304736173        3.1707244477
 C          5.9858550539       -4.4998468925        2.3897621484
 C          6.4933604066       -3.4399910220        1.6652919620
 N          7.7339452586       -0.9806849775        0.7275903461
 C          7.9177789484        0.1707466471        0.0295681416
 C          9.2465555352        0.5591980805       -0.4048638234
 C          9.4600797822        1.3958945539       -1.5007658754
 C         10.7460781534        1.7255047338       -1.8829522379
 C         11.8352285737        1.2238067985       -1.1881168380
 C         11.6321891590        0.3770437786       -0.1095195186
 C         10.3502767705        0.0436840058        0.2782808907
 C          6.6812966901        0.7755081731       -0.1904429881
 C          6.3229054157        2.0134980841       -0.8684122229
 C          6.9852779956        3.1987938756       -0.5484690136
 C          6.6433571007        4.3798351759       -1.1783022514
 C          5.6381790147        4.3959186682       -2.1321235005
 C          4.9788268194        3.2222347684       -2.4580742133
 C          5.3153719344        2.0371418569       -1.8318839563
 C          3.5308387025       -0.9187011930       -0.0726470813
 C          2.1698752148       -0.7491942696       -0.0926873971
 C         -0.4613063667        1.9104565211        0.1873466315
 C         -1.8120348981        2.0589246583        0.1514034094
 N         -4.5738342825        2.4115939434        0.3843745729
 C         -5.8914808638        2.2843036473        0.4142415509
 C         -6.8528711941        3.2950502712        0.7072640256
 C         -6.4465454644        4.5849198227        1.0568951751
 C         -7.3795603065        5.5428358573        1.3852778558
 C         -8.7281522053        5.2079085120        1.3737298678
 C         -9.1391628244        3.9375740347        1.0224152463
 C         -8.2207665512        2.9422333575        0.6669448213
 C         -8.6201697174        1.6083151772        0.2443322641
 C         -9.9638327829        1.2717215110        0.0754123689
 C        -10.3620656085        0.0298758377       -0.3753265997
 C         -9.4066992725       -0.9293941597       -0.7047945441
 C         -8.0754883937       -0.6479421928       -0.5460357307
 C         -7.6414143124        0.6015957118       -0.0489387729
 C         -6.2882593185        0.9425291438        0.1312770405
 C         -5.4775352231       -2.1072342411        0.4129594077
 C         -5.2657028755       -3.4268328944        0.0822915220
 H         -3.3901368412       -2.9966354379       -2.7140025807
 H         -3.7515314030       -0.6292726747       -2.1105975702
 H         -2.6995158706       -1.2110011997        0.5465240641
 H         -0.3118945787       -1.4577060760        0.5841013400
 H          2.0166360951        2.4294217310        1.0783653427
 H          4.4350297822        2.1266861117        1.1099724942
 H          4.2750309157       -1.0533796198        2.6014917125
 H          3.3713083163       -2.9476806826        3.8607020394
 H          4.4533137169       -5.1607622759        3.7335977155
 H          6.4723380226       -5.4630464623        2.3454885767
 H          7.3750155222       -3.5533915198        1.0540140277
 H          8.6195055474        1.7720609944       -2.0640588071
 H         10.9005153539        2.3731960046       -2.7338384678
 H         12.8381105371        1.4862180562       -1.4912365628
 H         12.4789005921       -0.0246168799        0.4280664350
 H         10.1740922712       -0.6169411250        1.1128601227
 H          7.7652275900        3.1826613212        0.1989039258
 H          7.1605461301        5.2925013082       -0.9216084653
 H          5.3710249805        5.3205635429       -2.6215743612
 H          4.1990923706        3.2284614880       -3.2052855690
 H          4.8063007446        1.1226119972       -2.0999073253
 H          3.9723387388       -1.8482751240       -0.4014063256
 H          1.5512964849       -1.5509418326       -0.4638421093
 H          0.1657391098        2.7837306739        0.0913542732
 H         -2.2642376131        3.0325086285        0.0512338329
 H         -5.3885098728        4.7947735034        1.0679602509
 H         -7.0697384724        6.5407497883        1.6564213539
 H         -9.4673622371        5.9487491708        1.6418892877
 H        -10.1965929278        3.7270666652        1.0338755537
 H        -10.7295587756        2.0003638490        0.2872597272
 H        -11.4124715130       -0.1903811941       -0.4902518122
 H         -9.7133676922       -1.8901271704       -1.0903748471
 H         -7.3439564203       -1.3854113225       -0.8314253319
 H         -6.0520490287       -1.8482454387        1.2894690315
 H         -5.6757729350       -4.2145378106        0.6951076014
