97
 energy: -161.598887182691 gnorm: 0.000173506978 xtb: 6.7.1 (edcfbbe)
F           -3.65446246865420       -5.22595421195684       -2.74128219105118
C           -3.79381088503827       -5.03954191301225       -1.41995175486590
F           -4.68569162802035       -5.94611522076832       -0.99658190431628
F           -2.61328044282492       -5.38776213518576       -0.86756795912318
C           -4.17745476240364       -3.63043305729449       -1.06972477778604
C           -3.68280482769850       -2.58027033521966       -1.83312830410302
C           -3.99990363822049       -1.27984767411239       -1.49384650162253
C           -4.80724436053014       -1.02790179874792       -0.38759325453439
N           -5.08459946890990        0.29559792111309       -0.01967891564137
C           -4.13033027238617        1.23471212432234        0.32939166203068
C           -2.69826906362654        0.99095884011809        0.36188573619202
C           -2.14065717229550       -0.22094900947510        0.76687818390655
C           -0.77103910317951       -0.38903827968606        0.77741289333646
C            0.08193164255942        0.64665796782958        0.40105290245918
C            1.53818204691856        0.45940544028397        0.40939979740247
C            2.38204801481526        1.46886843185473        0.86894998212808
C            3.75118330592977        1.29696289378227        0.88043594748120
C            4.30411237839000        0.10763515135266        0.41704930117833
N            5.69734139655064       -0.06573988104547        0.40230268079242
C            6.41873906229671       -1.10940074779768        0.92554736622279
C            5.86929086841286       -2.21547610841991        1.69191712956889
C            4.76479468503656       -2.07240466725386        2.52994290179433
C            4.29211660981022       -3.15718069891092        3.24478761377298
C            4.91606512656661       -4.38938099426799        3.14350747908075
C            6.03122704946065       -4.53146679618622        2.33304389382347
C            6.50746628232031       -3.45345453388700        1.61349973009937
N            7.69669252858112       -0.96352268552150        0.68206204341820
C            7.84493473636257        0.19751182621453       -0.01280171061377
C            9.15883852428912        0.62460789097272       -0.46952147126597
C            9.32546201727752        1.42436082473158       -1.59844156943251
C           10.59192803385507        1.80495067650102       -2.00017215134972
C           11.70666820525045        1.38919139952351       -1.29062831936431
C           11.54981149332987        0.57729988994114       -0.17893282433989
C           10.28673898935811        0.19489455708181        0.22833109400265
C            6.60381942319862        0.78576010724181       -0.19315270503388
C            6.20994140016570        2.02999922357079       -0.84031902238783
C            6.87828718652984        3.21420267649585       -0.53034515459043
C            6.50619237415319        4.40249789286203       -1.12816476456271
C            5.46170712301061        4.42842321474576       -2.03865074007260
C            4.79620219932074        3.25624341988230       -2.35523727111004
C            5.16566587484642        2.06306948054991       -1.76281904839637
C            3.47313328850503       -0.90636141891023       -0.04954807715912
C            2.10473490444030       -0.73147275269581       -0.04311942969577
C           -0.47888200347638        1.86784432252097        0.02781493117742
C           -1.84619170334666        2.03842837725804        0.00862228290826
N           -4.66872693168973        2.38055049710133        0.65156960510000
C           -6.01223509684077        2.21904621536428        0.52554556587276
C           -7.03337495211169        3.17002310345208        0.80317721049067
C           -6.72248859443635        4.45060047506763        1.27199099491216
C           -7.72398195038554        5.34081478755130        1.56859533661500
C           -9.05297493973825        4.95566387996985        1.40308194655582
C           -9.36935738932628        3.70112028626157        0.93678543545175
C           -8.37428868202893        2.76616584881991        0.61218794900555
C           -8.67291472764830        1.44810167887132        0.07937736523802
C           -9.98795515100936        1.05099112695471       -0.20182198406100
C          -10.27867406011127       -0.17374695826013       -0.75414743995875
C           -9.25221787160162       -1.05704235117031       -1.07255389484172
C           -7.95091758052805       -0.71112062790936       -0.80431019854596
C           -7.63517772033545        0.51877512648285       -0.20895162389735
C           -6.30613134286437        0.92699732518562        0.09620919284651
C           -5.29812332124620       -2.08572835703131        0.37640733765983
C           -4.98397655257707       -3.38610180260965        0.03546148124342
H           -3.06036973560418       -2.78374811284433       -2.69056947286149
H           -3.62273007501570       -0.45437613866071       -2.07740256697312
H           -2.77258388179096       -1.02909953043312        1.10348048829596
H           -0.35474952950725       -1.32869686657003        1.10939273002078
H            1.95942057198978        2.38823471856554        1.24515994254515
H            4.39744005654969        2.07829159425220        1.25154263472193
H            4.28482877251796       -1.11119818199955        2.64137947021876
H            3.43439491232574       -3.03670789762078        3.89055002625180
H            4.54003775305418       -5.23355877000761        3.70237466708163
H            6.52916621606309       -5.48729664782128        2.26230485234782
H            7.37673734952079       -3.54483111469660        0.98118468592259
H            8.46351883374848        1.73717056143981       -2.16896311783450
H           10.71040160160032        2.42613977658406       -2.87652057630459
H           12.69419350422090        1.69112854999615       -1.60803949700990
H           12.41727267686318        0.24228605679077        0.37144876782001
H           10.14799465897397       -0.44093467409520        1.08903704273907
H            7.68965849500086        3.19045854616651        0.18238822600647
H            7.03015491502514        5.31382586254591       -0.88008499560796
H            5.17025216140637        5.35906163030238       -2.50248220386941
H            3.98650782219391        3.26914353383710       -3.07031399941347
H            4.65225004537137        1.14956907422729       -2.02730837369894
H            3.90767691164989       -1.82540350039892       -0.41410630800440
H            1.46718461431260       -1.51715512124024       -0.42000054672922
H            0.16623320520088        2.68071877171377       -0.27106646174272
H           -2.28219388740215        2.98131344140401       -0.28204639713133
H           -5.68109314580042        4.70340788852718        1.39641247018115
H           -7.48980047480223        6.33015099313144        1.93252025706348
H           -9.84493199978008        5.65016705738447        1.64329994759036
H          -10.41184228349068        3.44778531486607        0.82805707197804
H          -10.80584272473523        1.72128276032845        0.00653643165022
H          -11.30438614435333       -0.44405451591254       -0.95629317841827
H           -9.47548676328547       -2.00775361207006       -1.53315453416727
H           -7.15847835566875       -1.39043147064833       -1.07622911283856
H           -5.92190237207475       -1.87945340429457        1.23304635050018
H           -5.36037736875218       -4.20930131220677        0.62266233311305
