97
 energy: -161.517621668983 gnorm: 0.000053438399 xtb: 6.7.1 (edcfbbe)
F           -4.08285583887367       -5.43908623637449       -2.76230220656226
C           -4.19733955648621       -5.23805321949804       -1.43841011462028
F           -5.14438527117504       -6.08536501987888       -1.00607796024877
F           -3.03635543609375       -5.67635107098596       -0.90025503844233
C           -4.47920057462931       -3.81096431573967       -1.08836897393223
C           -3.90767644828609       -2.79267523982934       -1.84985812601957
C           -4.12778936022630       -1.47704621406430       -1.51076999016160
C           -4.92519877357300       -1.16045914066103       -0.40347521038709
N           -5.12205662827937        0.17251173745144       -0.05136476193223
C           -4.09140238534416        1.11585753606625        0.17273279026185
C           -2.71473672390158        0.87634490959109        0.25949504867042
C           -2.09842687726533       -0.39841253436466        0.42104824974705
C           -0.74315573256098       -0.52113503248599        0.46900255463083
C            0.12133131062108        0.59792463328293        0.37765497678224
C            1.55138022647710        0.44402423049398        0.39397590852632
C            2.40060386758990        1.47784953751074        0.83669152561627
C            3.76572002854550        1.32907598740920        0.85191643034518
C            4.34654039317493        0.13679044669502        0.41631215515331
N            5.74002524806842       -0.01631874452517        0.40719179732905
C            6.46770627534642       -1.05380789730512        0.94497908099051
C            5.92434268681358       -2.16059599394356        1.71069409597787
C            4.80382783037420       -2.03010733921395        2.53076183509246
C            4.33848037302825       -3.11777588888487        3.24530643537849
C            4.98472321131047       -4.34017836574025        3.16224130742496
C            6.11593584974751       -4.46905489112409        2.37149659625640
C            6.58643128890987       -3.38822649129252        1.65308641185731
N            7.74747372603308       -0.89469200421623        0.71607010439170
C            7.89302517430999        0.26658922258549        0.02547294699177
C            9.20478875733691        0.69769326067574       -0.42327641044980
C            9.37750467201221        1.52339617218201       -1.53424277991401
C           10.64653003674830        1.90268568924243       -1.92728757145605
C           11.75863820361311        1.46181222376589       -1.22780495595455
C           11.59646551237917        0.62439498003341       -0.13524553267563
C           10.33147915873246        0.24120888857812        0.26300062384172
C            6.64123386063069        0.84500848714256       -0.16806662530059
C            6.24778321292435        2.08341057375554       -0.82532341261536
C            6.90302969489413        3.27414586297371       -0.51102545428366
C            6.53090117217274        4.45635157239932       -1.12104787161695
C            5.50157154224653        4.46852438638948       -2.04883238029846
C            4.84925610888659        3.28950457563639       -2.36935687467732
C            5.21673522980706        2.10289617930719       -1.76354164166837
C            3.52663763419027       -0.90192437311801       -0.03169332294028
C            2.16252637804466       -0.75126451624308       -0.03656005835615
C           -0.49511162742944        1.87353183045104        0.29208043913017
C           -1.84592638079084        2.01050822469886        0.24089744046293
N           -4.61503353842918        2.33638622630211        0.40046336684627
C           -5.93016386036640        2.19844728106544        0.39313344873725
C           -6.90815351279317        3.19882168118722        0.66960082321781
C           -6.52224670848253        4.48873817391916        1.04071772848065
C           -7.47166357131310        5.43566290585930        1.35391695889856
C           -8.81643476933781        5.08917727006192        1.30604645184072
C           -9.20707195733046        3.81866344134020        0.93271772540654
C           -8.27126541073355        2.83515080724321        0.59089793013300
C           -8.64891968159999        1.50251057744356        0.14305667753583
C           -9.98479371366249        1.15754374178132       -0.06377527585907
C          -10.36117649855764       -0.08140165907349       -0.54148519873841
C           -9.38972635613407       -1.02725142123893       -0.86171161911629
C           -8.06522143418658       -0.73728614933534       -0.66501680857684
C           -7.65462185400677        0.50769753695969       -0.13751539832624
C           -6.30973626267923        0.85579456395829        0.08541120468295
C           -5.49455504546866       -2.18936696546411        0.35676048096198
C           -5.26909804736065       -3.50510403824888        0.01890275730140
H           -3.30245653748918       -3.04084048696845       -2.70789856873562
H           -3.69022875702178       -0.68051149709554       -2.09221576588291
H           -2.70790212420614       -1.27465255449532        0.57089358349845
H           -0.31781767702033       -1.49969731130792        0.63426886547767
H            1.97422561179641        2.39520983565749        1.21067717720433
H            4.39759535921983        2.12650791568590        1.21466531511199
H            4.30736869198500       -1.07621647913142        2.62897549860922
H            3.46860190225882       -3.00762157748420        3.87605385033769
H            4.61347387983423       -5.18695761822434        3.72012381939344
H            6.63033556645551       -5.41697935071035        2.31503663541196
H            7.46640455741071       -3.46969226690287        1.03437174073539
H            8.51876368515034        1.85346872602346       -2.09921555069187
H           10.76976064421060        2.54224757705605       -2.78938299627572
H           12.74810135371141        1.76358001864998       -1.53865904104572
H           12.46163996555860        0.27033767158674        0.40634339510862
H           10.18746576174502       -0.41285081783398        1.10889905147757
H            7.70197834157749        3.26116857842327        0.21596087936742
H            7.04340731295404        5.37306512788437       -0.86926540850551
H            5.21041131126479        5.39420606149078       -2.52239015202235
H            4.05058701666938        3.29260019905747       -3.09639960230704
H            4.71287808949525        1.18449315419232       -2.02827253142660
H            3.97836155139273       -1.81797676208640       -0.38369704344275
H            1.55195680981551       -1.55384019696044       -0.41937006993710
H            0.12505196800108        2.75412444469352        0.22228232819048
H           -2.30607840779238        2.98148547384722        0.15319196027193
H           -5.46678656353040        4.70796962912874        1.07996054743079
H           -7.17750587019364        6.43378096578657        1.64120429370800
H           -9.56877901497401        5.82081284683826        1.56261716149884
H          -10.26249228730319        3.59871779680734        0.91547705933946
H          -10.76184924071617        1.87678915144999        0.13866705909311
H          -11.40654884216836       -0.30859654615157       -0.68528588901147
H           -9.67823907154363       -1.98425817397743       -1.26979199757252
H           -7.32039628750484       -1.46373271302887       -0.94415387648715
H           -6.09879185419173       -1.94140464102368        1.21629774650185
H           -5.69779547489555       -4.29995795304337        0.60926538698512
