97
 energy: -161.598845308496 gnorm: 0.000059968673 xtb: 6.7.1 (edcfbbe)
F           -2.73488272481489       -5.20266358613373       -2.53572468828935
C           -4.01219999851629       -5.14532995234986       -2.12417471820028
F           -4.76259981617422       -5.49042052540327       -3.18948800966572
F           -4.16739413811284       -6.12534181867139       -1.22330861593538
C           -4.38228355192487       -3.79098016340433       -1.59116330426034
C           -3.89336558698284       -2.65848170355739       -2.23113147085011
C           -4.23996792822539       -1.40608932415049       -1.76473632207337
C           -5.07744433110930       -1.28441085479176       -0.65870490967531
N           -5.38332115024331       -0.01151187952494       -0.15921809882919
C           -4.44913885915074        0.89986936859517        0.30033171170846
C           -3.01419098698096        0.67157472688529        0.32830814287577
C           -2.44888585712220       -0.56603216729454        0.63211760706698
C           -1.07788676532245       -0.72083515309182        0.64751236285319
C           -0.23135790191991        0.35218257294028        0.37521709528901
C            1.22640664891976        0.17758915413217        0.38958850317414
C            2.05427045303963        1.15197058873292        0.94419276594755
C            3.42442582232434        0.98898759958063        0.96525489252469
C            3.99451883023241       -0.15552031108529        0.41757632458902
N            5.38895410478221       -0.31992173338434        0.41615522131637
C            6.10711444563137       -1.39624000261426        0.87343888811682
C            5.54981693745244       -2.55937758017437        1.54358534458918
C            4.42738658000679       -2.48493336767488        2.36658490883860
C            3.94718962273256       -3.62241857661900        2.98843193211134
C            4.58119551212464       -4.84045271469207        2.80871825938724
C            5.71377424114152       -4.91594196790493        2.01359614068165
C            6.19762207439580       -3.78482872462755        1.38656282928756
N            7.38846287008659       -1.22571486928918        0.66648983396546
C            7.54217445934603       -0.01485005365815        0.06395917634853
C            8.86162873770263        0.45221781090152       -0.33376225243012
C            9.04394909587576        1.33901990685769       -1.39310369967618
C           10.31517179028787        1.75573325250286       -1.74023446587620
C           11.41939135092476        1.29023001963070       -1.04530663999778
C           11.24729233255433        0.39242856537365       -0.00415803031026
C            9.97934953743878       -0.02628528146201        0.34860447891558
C            6.30070290062156        0.57880942724744       -0.09569162119567
C            5.90899130788663        1.86551686194499       -0.65517147020346
C            6.56192221507933        3.02778682857392       -0.24544097604099
C            6.19070190605804        4.25483823263661       -0.75969325518123
C            5.16231203843042        4.34155658611785       -1.68464053282629
C            4.51215016043447        3.19179944305978       -2.09989400675240
C            4.88093598440640        1.96027991053101       -1.59151292121397
C            3.17990359554209       -1.13301173557664       -0.14568583936089
C            1.81034496409996       -0.96784947605730       -0.14999596225928
C           -0.80062217730061        1.59574517994448        0.10233505966291
C           -2.16951425987020        1.75426395458066        0.08010685885937
N           -5.00980798726706        1.99645401853973        0.73513793881981
C           -6.34920989375627        1.82833362459502        0.57532913542555
C           -7.38959509406530        2.72692599397485        0.94178351858181
C           -7.10611102685138        3.95456793830912        1.54914887081732
C           -8.12613598111662        4.79005316389943        1.92988933080667
C           -9.44648361170949        4.40204657859482        1.71057794837725
C           -9.73598733128495        3.20003873011757        1.10828432678438
C           -8.72135290850262        2.32319755258472        0.69439974438414
C           -8.99155427194212        1.06632082577848        0.01794660172122
C          -10.29647581193454        0.68060881959871       -0.32051531694656
C          -10.55955520608459       -0.48004601205359       -1.00844133819254
C           -9.51423482021955       -1.30479565721543       -1.41141009133404
C           -8.22211731679430       -0.96934404571410       -1.09061047142617
C           -7.93473116619160        0.19158057378902       -0.35818303930533
C           -6.61644992765292        0.58511302348829        0.00703470652839
C           -5.56859412868029       -2.42420432273787       -0.02387687524638
C           -5.22550782153606       -3.67675757152202       -0.49268905788354
H           -3.24379557655755       -2.76160512979893       -3.08643547061168
H           -3.86406693275550       -0.51814395355337       -2.24891940506499
H           -3.07708843424063       -1.40654138255886        0.88675585466983
H           -0.65539563135454       -1.68154344281468        0.90241742774735
H            1.61809687213895        2.03460577024452        1.38699209191558
H            4.05812606829911        1.74190231650740        1.40957231876076
H            3.93896642909529       -1.53719787870681        2.53953469022167
H            3.07561353789649       -3.55472778788135        3.62328029136094
H            4.19937071203243       -5.72589419992369        3.29513482483559
H            6.21938890412861       -5.86130076898916        1.88243009825531
H            7.08031887370144       -3.82438463612964        0.76763452101619
H            8.19067215912095        1.69191894586729       -1.95312865197079
H           10.44568893985892        2.44466279187324       -2.56256919749584
H           12.41067672818748        1.62064875924679       -1.31970459079831
H           12.10669591258834        0.01873953172559        0.53382142230326
H            9.82890202678241       -0.72854425758872        1.15391750915862
H            7.36068209167198        2.95638323817768        0.47827089189424
H            6.70268109115116        5.14868606683106       -0.43487982005413
H            4.87151096231229        5.30222164066545       -2.08303883388975
H            3.71511566020054        3.25247780437672       -2.82663371303454
H            4.37990258314728        1.06560851651535       -1.93289471437283
H            3.62809490398910       -2.01634474118566       -0.57606802602812
H            1.18588695085182       -1.72358799144070       -0.60244628301489
H           -0.16081402844846        2.43795072982554       -0.11579197123813
H           -2.61173043470763        2.71497951935526       -0.13237053652864
H           -6.07061594623801        4.21046582018784        1.71088359424869
H           -7.91304764863235        5.73818988696976        2.40074060391539
H          -10.25297064345080        5.05255405791548        2.01661518136109
H          -10.77270362540597        2.94167321136431        0.96254280513886
H          -11.12834334461831        1.30979537621224       -0.04889006215224
H          -11.57821092379992       -0.74354011072908       -1.25120562213908
H           -9.71565671722124       -2.20136509175610       -1.97835030844638
H           -7.41479590752110       -1.60027721234158       -1.42763888652196
H           -6.21652559204631       -2.31901252543110        0.83322021064211
H           -5.59973020035171       -4.56249857464420       -0.00333670302088
