69
 energy: -99.595329641591 gnorm: 0.000108095718 xtb: 6.7.1 (edcfbbe)
C            6.28813654402887        0.04100342097213       -0.13746517225442
C            4.94360621887650        0.30999260556597        0.56278748538563
C            5.17246802580185        1.06136281819901        1.88704441960501
C            4.27832433353261       -1.01758549773487        0.87141345574651
C            4.92406588095885       -1.92767679390864        1.69714366030430
C            4.35481889073990       -3.13893242264437        2.04305805470790
C            3.09327721925102       -3.45102427566284        1.57028233981188
C            2.43024129925746       -2.56604171481624        0.74665742426815
C            3.01727137391971       -1.35483498028024        0.36887138009351
N            2.33383373155742       -0.49168570675336       -0.47486913538590
C            1.05807227977964       -0.86845457127949       -0.96540251964529
C            0.93076548910736       -1.86981915743869       -1.93028704192996
C           -0.34755109711446       -2.19603017345369       -2.33895613334662
N           -1.43875700690610       -1.59095595892424       -1.90771285956105
C           -1.32602120279760       -0.61151463187931       -1.01287275987515
N           -2.47568034585258       -0.01190292273476       -0.55774445914131
C           -2.45070607790159        1.21395466684780        0.13111950496308
C           -1.68419568841065        2.27534341676244       -0.33843393260050
C           -1.71447896837923        3.49220884468593        0.31368982449164
C           -2.53228996191848        3.66025917784600        1.41743052267324
C           -3.31847937420535        2.61293564059247        1.86675929984042
C           -3.28660629128058        1.37694334453375        1.23929205049968
C           -4.08537821134284        0.16584625182445        1.67945326362276
C           -5.18361509780891        0.52133228276221        2.68098624051136
C           -3.12597236875048       -0.83568560767923        2.35535275888189
C           -4.62718288919111       -0.47040042217870        0.41097894102009
C           -5.91407451372088       -0.96936872132627        0.28778330165798
C           -6.33343171504564       -1.57808287676813       -0.88306826309588
C           -5.46771725726442       -1.68395053723064       -1.95559797367224
C           -4.18548007976361       -1.17516594522221       -1.86361167279205
C           -3.76045637587753       -0.58112274967341       -0.68315751628841
C           -0.07602174575075       -0.24318353282858       -0.48520631229160
C            2.85441756346861        0.74124109673390       -0.83992090374142
C            2.15392923184629        1.55469545949162       -1.73574271010330
C            2.63726033732784        2.79288015419985       -2.10155140745370
C            3.84096840392498        3.24060194758517       -1.58877657688901
C            4.55435792384954        2.42302920542640       -0.73240228429599
C            4.09098308810197        1.17208241527131       -0.34820465107623
H            6.93690842315433       -0.56621838421192        0.48769524183598
H            6.80349793347011        0.97128018543909       -0.35991076451923
H            6.11816003264516       -0.48913723563701       -1.07282990090605
H            4.21795551610044        1.24783159286474        2.37604507157228
H            5.79486702090575        0.47957650101484        2.56129387916617
H            5.66067125038670        2.01617895893818        1.71248173832026
H            5.90164292988124       -1.68826829281053        2.08768994476034
H            4.88704365721579       -3.82532791915244        2.68377716700457
H            2.61978719394574       -4.38236648327385        1.84317650514145
H            1.44101026915211       -2.81435307432500        0.39405846692619
H            1.79957469618215       -2.37170380973466       -2.32349500269172
H           -0.51851952769876       -2.97890355416953       -3.06624659196152
H           -1.07399819230145        2.14572649945207       -1.21966584373388
H           -1.11025492706440        4.30984708552826       -0.04912809848385
H           -2.56492027389173        4.61116116523382        1.92755194457401
H           -3.95578456585108        2.77272888623233        2.72122101421768
H           -4.74688233537053        0.95844473190300        3.57562319171617
H           -5.89182227170479        1.22573481183588        2.25047588867046
H           -5.71632449395168       -0.37503444951438        2.98811133910191
H           -2.68168009545789       -0.38506550923830        3.24075662275608
H           -2.32561193727537       -1.13566202018263        1.68423721725854
H           -3.67341751619098       -1.72759020095042        2.65272739194166
H           -6.60741802368860       -0.89545042108590        1.10981445749593
H           -7.33843544536106       -1.96693915648502       -0.95308113706827
H           -5.79236280555541       -2.15124430227126       -2.87313024760767
H           -3.50757264110517       -1.24195771046533       -2.69629680813975
H            0.00750085252753        0.50575012168367        0.28638368783444
H            1.22525989112429        1.20543642134433       -2.15987862278438
H            2.07389895703264        3.40336106713374       -2.79172447187445
H            4.22873584046601        4.20989575794890       -1.86267351416463
H            5.50323737766568        2.77496749830524       -0.35656158410382
