69
 energy: -99.490410011567 gnorm: 0.000054378760 xtb: 6.7.1 (edcfbbe)
C            6.27449676645082       -0.04278642103251       -0.09529836369885
C            4.93212242673498        0.05996468767511        0.65315556011373
C            5.16981865061309        0.47656894375131        2.11698798391994
C            4.26021860373450       -1.29723582202466        0.64165023204331
C            4.89924903580203       -2.38313638815829        1.22248513365838
C            4.31853930859371       -3.63808565405179        1.26759078578845
C            3.05327110030485       -3.82090838990029        0.73342083788588
C            2.39631517064389       -2.76219104239177        0.14892672059939
C            2.99116414833720       -1.49385127360971        0.07651806707312
N            2.31310038991549       -0.46282178353675       -0.54157289762591
C            1.04996719650390       -0.72023871581323       -1.12963137547448
C            0.93270110828422       -1.49826355742131       -2.33198660177265
C           -0.30673203318513       -1.71264082662316       -2.84339648118110
N           -1.44043497356442       -1.22285907105077       -2.30394869268579
C           -1.35043568532545       -0.51125171265972       -1.12588652831654
N           -2.51190742766810       -0.03814334546410       -0.51005943466752
C           -2.56664000205104        1.29422512659465       -0.12011393100098
C           -1.83872064855815        2.25965669821866       -0.82333222452464
C           -1.91752033402721        3.58742213490662       -0.47217041084948
C           -2.73584938235964        3.97582564140291        0.58065877985695
C           -3.47359382252129        3.02593464448198        1.26889325981993
C           -3.40481640311416        1.68283548600764        0.94059628788211
C           -4.12021099267660        0.58834077771764        1.70271666351956
C           -5.28042583359269        1.11762538479738        2.54594011398559
C           -3.09307632722853       -0.06971247126997        2.65285602578422
C           -4.54912614430065       -0.47029030096020        0.70623290384589
C           -5.73424176944443       -1.17861258204383        0.80390238401345
C           -6.02030328612759       -2.22781516240055       -0.05613931781589
C           -5.10060226815238       -2.59951678110774       -1.02307485741013
C           -3.91591414883599       -1.90583060447700       -1.14702977377924
C           -3.64636786773753       -0.81785346149081       -0.31551093805581
C           -0.13270811270271       -0.24213433110132       -0.54601085410101
C            2.84309405758169        0.81062685546710       -0.60687564322768
C            2.13719010798733        1.81844938646749       -1.27918248091118
C            2.62132035315888        3.10453246411874       -1.34326385454792
C            3.83027036035012        3.41655929917147       -0.74228203258294
C            4.54614162472149        2.42049936545671       -0.10318044969193
C            4.08296797300571        1.11472826764448       -0.02498433880013
H            6.92145381663334       -0.78175558753216        0.36902338106344
H            6.79243770579862        0.91220321353621       -0.09492098025561
H            6.10016859769301       -0.33860519252724       -1.12810738262977
H            4.21801517021158        0.54990311176987        2.63984023008329
H            5.78875617665443       -0.25288117621982        2.63178332248218
H            5.66576298693819        1.44169292526793        2.16956004743376
H            5.87814264719664       -2.25301320356864        1.65871134845378
H            4.84530672829867       -4.46176629901160        1.72467968351392
H            2.57730192507062       -4.78908528787458        0.77523401338007
H            1.40684205369252       -2.90137692986392       -0.25646913681228
H            1.81841654106808       -1.86489002508270       -2.82472204877562
H           -0.45436720734671       -2.26399561470893       -3.76179282863465
H           -1.23322557061345        1.94950063412984       -1.66080403345225
H           -1.35172485933740        4.32403960543002       -1.02201649958555
H           -2.80223141788087        5.01538281198895        0.86288155096543
H           -4.10632950082345        3.35441028524365        2.07743207115663
H           -4.91869070556904        1.83790252397553        3.27490929870125
H           -6.03089073543906        1.59342275419441        1.91871228827070
H           -5.74311084055160        0.30708042352511        3.10267411774876
H           -2.72209291068557        0.66452375036273        3.36514958197701
H           -2.24839427245794       -0.46950451288498        2.09684493896885
H           -3.56114745998266       -0.88607714462346        3.19895613420842
H           -6.45511176838173       -0.92836627421498        1.56519179869918
H           -6.94990929052755       -2.76697222397598        0.04793973765668
H           -5.30569177491791       -3.43255030949521       -1.67840918113817
H           -3.19020879153120       -2.17101786205437       -1.90167238423871
H           -0.09307122911494        0.30797275197388        0.38389496483228
H            1.20560455955351        1.57029468047573       -1.76082261450173
H            2.05806806263131        3.86359674258567       -1.86491745709186
H            4.21875823905444        4.42276701726150       -0.78061928543858
H            5.49635983296239        2.67452735538878        0.34184053245569
