  166
  -248.162915371200        1.00000000000000      !
 N         10.3429102235        5.6414432676       -1.8634141705
 C          9.6638183840        4.9282829314       -1.2781688684
 C          8.8114686607        4.0449586921       -0.5768712802
 C          7.6722348606        3.5425399039       -1.1954657901
 C          6.8170584142        2.6756685894       -0.5261425260
 N          5.6652321489        2.2157205716       -1.1610717811
 C          5.6320371588        1.4699214781       -2.3333716587
 C          6.6376607413        1.2290676102       -3.2549244354
 C          6.3428097590        0.4151626820       -4.3339981309
 C          5.0815153675       -0.1500858454       -4.4932314093
 C          4.0817042648        0.0736618244       -3.5666022571
 C          4.3559104147        0.8816276102       -2.4729011266
 C          3.5802211265        1.2952056482       -1.3342481372
 C          2.2920558068        1.0212653693       -0.9075369342
 C          1.8190086011        1.6198276051        0.2555992322
 C          0.4659996293        1.3319814374        0.7492401490
 C          0.1900834161        1.3035977114        2.1125851938
 C         -1.0895590358        1.0633464739        2.5808508597
 C         -2.1421272232        0.8231461015        1.7085398273
 C         -3.5863782442        0.5649017373        2.1174924595
 C         -4.4244484182        1.5721324359        1.3417432989
 C         -5.5042234410        1.2243940534        0.5425331209
 C         -6.2263320733        2.1889927552       -0.1370205676
 C         -5.8946702505        3.5323807759       -0.0172048801
 N         -6.6281623440        4.5105047667       -0.7040345146
 C         -6.0985115212        5.5104587787       -1.4941235800
 C         -4.7770608639        5.7603702054       -1.8366529106
 C         -4.5191516597        6.8270463508       -2.6760044606
 C         -5.5456833353        7.6263426620       -3.1746223655
 C         -6.8639454959        7.3677032988       -2.8575554174
 C         -7.1489374767        6.3006299942       -2.0156983102
 C         -8.3699317524        5.7435086290       -1.5055090969
 C         -9.7087408330        6.0840055316       -1.6482604920
 C        -10.6575656847        5.3290541733       -0.9884645405
 C        -10.2845344560        4.2557721222       -0.1822189244
 C         -8.9595528558        3.8979037666       -0.0240378605
 C         -8.0023200569        4.6381975254       -0.7036617348
 C         -4.8220493819        3.8934518250        0.7931596604
 C         -4.0979365337        2.9221543667        1.4525768071
 C         -3.9349805633       -0.8890295924        1.7638051817
 C         -3.0300457955       -1.8800006791        2.4983158316
 C         -2.7949984102       -1.4793253820        3.9605296700
 C         -3.8790481471       -0.5206450307        4.4371962326
 C         -3.8992537730        0.7758508401        3.6190723474
 C         -1.8601586736        0.8401731615        0.3431781358
 C         -0.5899643973        1.0924771941       -0.1289021213
 C          2.6350811925        2.5285475105        0.9428036133
 C          3.9265724622        2.8023466189        0.5429555309
 C          4.4144666046        2.1340310661       -0.5680151188
 C          7.1315644853        2.2736346325        0.7962349909
 N          6.3297613396        1.3626876764        1.4809802390
 C          5.6567032546        1.6167759506        2.6697686393
 C          5.7902469706        2.6775965413        3.5506594305
 C          4.9523156921        2.7118317929        4.6506982026
 C          3.9976185266        1.7227890872        4.8675060421
 C          3.8508246678        0.6717509622        3.9832091901
 C          4.6836690686        0.6146029115        2.8752323719
 C          4.7788874111       -0.2910317019        1.7627276285
 C          4.0781892224       -1.4275590178        1.3953696719
 C          4.4086968715       -2.0648881021        0.2069874016
 C          3.6077557072       -3.2106392225       -0.2514796488
 C          3.3736299459       -4.3068248884        0.5679442345
 C          2.5798685706       -5.3547010490        0.1397772324
 C          1.9637027036       -5.3359094977       -1.1084097928
 C          0.9692906637       -6.4052144523       -1.5451803976
 C         -0.4057899824       -5.8361349333       -1.2072394848
 C         -0.6421212785       -5.3887164829        0.0908429852
 C         -1.8627157007       -4.8710687106        0.4679239936
 C         -2.9014465167       -4.7897743703       -0.4539462502
 N         -4.1469119607       -4.2694058678       -0.0735659737
 C         -4.8675347599       -4.6433656721        1.0427027979
 C         -4.5869236995       -5.6154282215        1.9929849697
 C         -5.4934476210       -5.7950176928        3.0196726215
 C         -6.6603093872       -5.0378957136        3.1019251771
 C         -6.9600637482       -4.0908676165        2.1437314840
 C         -6.0642123655       -3.8919352288        1.1015491536
 C         -6.0563890467       -3.0245123288       -0.0418868133
 C         -6.9388600091       -2.0633900922       -0.5176728943
 C         -6.6040122204       -1.3664393287       -1.6616825667
 C         -5.3974730019       -1.6033819130       -2.3167774658
 C         -4.5067931408       -2.5588777545       -1.8663976658
 C         -4.8519911798       -3.2861865602       -0.7359559909
 C         -2.6814011215       -5.2333158983       -1.7518417936
 C         -1.4482232155       -5.7429928443       -2.1201950647
 C          1.1226924998       -6.7453293457       -3.0372414499
 C          2.4989075552       -7.3396702568       -3.3225380228
 C          2.6729873131       -8.6442456882       -2.5538072726
 C          2.4830904749       -8.3953163242       -1.0620297904
 C          1.1308858859       -7.7404366266       -0.7887884531
 C          2.1994062110       -4.2284668694       -1.9190567272
 C          3.0228486764       -3.1973973406       -1.5122228939
 C          5.4857102120       -1.6089197544       -0.5588750381
 C          6.2169982164       -0.4969781469       -0.1922085923
 C          5.8113362996        0.1974714678        0.9360843319
 C          8.2596295709        2.7954174386        1.4172487063
 C          9.1010948184        3.6782275097        0.7499704676
 C         10.2477931229        4.1875022547        1.4012442998
 N         11.1693893960        4.5941297041        1.9469181764
 H          7.4276635418        3.8591579521       -2.1985611037
 H          7.6258014813        1.6493256940       -3.1396758525
 H          7.1096188237        0.2158841476       -5.0674091238
 H          4.8880687641       -0.7753509144       -5.3518475257
 H          3.1033422617       -0.3664417159       -3.6878633591
 H          1.6730380260        0.3334973279       -1.4623629639
 H          0.9906430384        1.4592338253        2.8221551130
 H         -1.2450629739        1.0715952742        3.6487149134
 H         -5.7907917576        0.1927676314        0.4204254476
 H         -7.0446364338        1.8971271708       -0.7777517946
 H         -3.9762405231        5.1359666143       -1.4697716196
 H         -3.4982874860        7.0441931125       -2.9546308062
 H         -5.3019806489        8.4535082865       -3.8246086036
 H         -7.6609665436        7.9774739438       -3.2557469919
 H         -9.9961380472        6.9247475344       -2.2616908595
 H        -11.7043759929        5.5746428365       -1.0888594147
 H        -11.0487067720        3.6929870089        0.3338395518
 H         -8.6789320502        3.0761190256        0.6174046648
 H         -4.5676640716        4.9364859665        0.9083864662
 H         -3.2607601225        3.2158125589        2.0689371898
 H         -4.9730648347       -1.0804404113        2.0388230832
 H         -3.8377463825       -1.0515965054        0.6896084941
 H         -3.5064631231       -2.8612871740        2.4582973162
 H         -2.0720063373       -1.9493983397        1.9783251616
 H         -2.7912790142       -2.3683199661        4.5943580749
 H         -1.8198328276       -1.0042187739        4.0635472177
 H         -3.7242306818       -0.2777341365        5.4906374966
 H         -4.8457151218       -1.0220144063        4.3599599267
 H         -3.2062366877        1.5009255904        4.0443914954
 H         -4.8964646379        1.2158061369        3.7002855083
 H         -2.6604824113        0.6756907269       -0.3646379967
 H         -0.4220790141        1.1376302492       -1.1950088826
 H          2.2389341350        3.0452471004        1.8035662830
 H          4.5285839412        3.5204985665        1.0797557173
 H          6.5123471789        3.4638800170        3.3871428879
 H          5.0395797209        3.5273015660        5.3529457764
 H          3.3610750630        1.7862634434        5.7373854724
 H          3.1022422182       -0.0897955870        4.1410667751
 H          3.2660562428       -1.7954636183        2.0038466992
 H          3.8277519561       -4.3448445369        1.5481616836
 H          2.4424250624       -6.1881490201        0.8108516632
 H          0.1494268338       -5.4256568928        0.8232684573
 H         -2.0094858503       -4.5128146326        1.4749918776
 H         -3.6938625306       -6.2184672628        1.9293041727
 H         -5.2952135061       -6.5427811789        3.7737412048
 H         -7.3425559484       -5.2074518968        3.9219611634
 H         -7.8731032066       -3.5170344464        2.1970876349
 H         -7.8652843772       -1.8665640717        0.0016001727
 H         -7.2778392671       -0.6186270816       -2.0523247674
 H         -5.1524111292       -1.0239950180       -3.1947686514
 H         -3.5666989586       -2.7245009086       -2.3710106070
 H         -3.4846404672       -5.1922063283       -2.4728722635
 H         -1.3229980424       -6.0789455897       -3.1369576666
 H          0.9616639577       -5.8670231842       -3.6617891808
 H          0.3675392854       -7.4872949498       -3.3064205738
 H          3.2747741356       -6.6310429581       -3.0246704710
 H          2.6027969821       -7.5221295990       -4.3944602153
 H          3.6647444648       -9.0613791593       -2.7388297708
 H          1.9341779791       -9.3709266015       -2.9010944743
 H          2.5442854876       -9.3391776325       -0.5154214432
 H          3.2871430036       -7.7485341032       -0.7070581995
 H          0.3356311200       -8.4101468020       -1.1274756407
 H          0.9878709402       -7.6010729228        0.2830081807
 H          1.7250278303       -4.1514417214       -2.8850195081
 H          3.1915679398       -2.3501886851       -2.1612498142
 H          5.7565182078       -2.1487412718       -1.4540878066
 H          7.0685932264       -0.1804557796       -0.7757273421
 H          8.5056540467        2.4805063846        2.4205845020
