  52
        -84.90366152
 O          7.7969807534        0.8310542041        0.0014592788
 C          6.6654882315        0.3626014151        0.0162675191
 C          6.3319429026       -1.0973358203        0.2069237570
 O          7.1582600793       -1.9917686457        0.3598786822
 C          4.8740591344       -1.1894343007        0.1633112600
 C          4.0010707561       -2.2480515197        0.2584706379
 C          2.6276619381       -1.9736106545        0.1756092724
 C          2.0993681747       -0.7038137807        0.0095851527
 C          0.6471355957       -0.5156979213        0.0009118828
 C         -0.1773595891       -1.3508859061       -0.7549632084
 C         -1.5449224311       -1.1860943529       -0.7580403120
 C         -2.1383177394       -0.1826929868        0.0118796571
 N         -3.5228002465       -0.0140089917        0.0147076132
 C         -4.3646933787       -1.1289817763       -0.0690978170
 C         -5.5482242789       -1.0657363964       -0.8047967549
 C         -6.3770987181       -2.1676696850       -0.8811444476
 C         -6.0399777603       -3.3456391654       -0.2342195978
 C         -4.8645555791       -3.4136601773        0.4961467140
 C         -4.0312084059       -2.3159762302        0.5837732007
 C         -4.0723252710        1.2694821034        0.1053452304
 C         -3.4622359428        2.3458719865       -0.5395890534
 C         -4.0073342927        3.6112057065       -0.4451860096
 C         -5.1664694912        3.8232381619        0.2836399535
 C         -5.7782651717        2.7566205815        0.9224750451
 C         -5.2381445726        1.4883330100        0.8398308364
 C         -1.3196375266        0.6456782634        0.7832999391
 C          0.0480619479        0.4817512349        0.7731245996
 C          2.9922992398        0.4037864164       -0.1271486935
 C          2.6884939741        1.7609852238       -0.3969186902
 C          3.6928488761        2.6915816662       -0.5070901073
 C          5.0580946625        2.3703113958       -0.3742412418
 C          5.3801305746        1.0570658491       -0.1412323527
 C          4.3481548251        0.1046916113       -0.0324973930
 H          4.3472577811       -3.2597476152        0.4001640327
 H          1.9410912506       -2.8022968692        0.2790501211
 H          0.2676738261       -2.1169930952       -1.3721607958
 H         -2.1668276334       -1.8253835115       -1.3670908647
 H         -5.8052851725       -0.1519880470       -1.3201218511
 H         -7.2880117408       -2.1090173210       -1.4579336941
 H         -6.6891779659       -4.2050898785       -0.2987921480
 H         -4.5983828700       -4.3256256712        1.0090084191
 H         -3.1220914272       -2.3655240725        1.1645405649
 H         -2.5671139249        2.1790534430       -1.1204971806
 H         -3.5281939422        4.4358827720       -0.9513548978
 H         -5.5904605748        4.8130694205        0.3530397762
 H         -6.6793865947        2.9145456003        1.4959659231
 H         -5.7099034476        0.6597624759        1.3473446309
 H         -1.7692515220        1.4076492209        1.4027836192
 H          0.6627904974        1.1060627244        1.4041605706
 H          1.6612515970        2.0623773679       -0.5369244978
 H          3.4335359066        3.7202793516       -0.7127951095
 H          5.8128353302        3.1350467555       -0.4681023334
