52
 energy: -84.960191226786 gnorm: 0.000019861506 xtb: 6.7.1 (edcfbbe)
O            7.78517240607384       -0.86584585364097        0.09063618053048
C            6.68096217308765       -0.38996420940664        0.03305126074749
C            6.35102371005642        1.11317346948995       -0.24239575646104
O            7.16405946635096        1.98324750939266       -0.42748316650281
C            4.88431979602178        1.20478449232916       -0.21784476081318
C            4.00602900626681        2.25243531779064       -0.36882707077981
C            2.63312750575133        1.98911963849873       -0.29233442597265
C            2.10850285875145        0.72440630817563       -0.07410742321663
C            0.65620209021024        0.53357558911014       -0.05840332854752
C           -0.16541292282609        1.38440206934161        0.68156763118720
C           -1.53160465375428        1.21174479452245        0.70318694067240
C           -2.13033924495123        0.18938840726804       -0.03828797615945
N           -3.50933428225640        0.01174521687938       -0.02163796591222
C           -4.05888156919746       -1.27382339959696       -0.13109074575668
C           -3.45769303522461       -2.35731842684511        0.50792975322324
C           -4.00512586854578       -3.62076632364405        0.39687843457187
C           -5.15985323304160       -3.82243123817296       -0.34120833949384
C           -5.76453311316099       -2.74756018725938       -0.97204612098666
C           -5.22001757262431       -1.48174911739487       -0.87386074211567
C           -4.36564661310163        1.11555384624006        0.10419588674984
C           -4.07769382502126        2.31287928026175       -0.54917388606483
C           -4.92706666303226        3.39496577009243       -0.42214865756245
C           -6.07549157776482        3.29889783593801        0.34647182432010
C           -6.36869090172706        2.10896472273789        0.99224479489107
C           -5.52136856712132        1.02385737560687        0.87809019912896
C           -1.31223921494275       -0.64904089407128       -0.80057888508536
C            0.05504803264875       -0.48281660362080       -0.80242769189650
C            2.99904812655586       -0.37167219607249        0.12308942825540
C            2.67147089665090       -1.70765785458163        0.44789111776377
C            3.65540668461622       -2.65387345552385        0.61416093094938
C            5.02181604038902       -2.35346578879112        0.48309550584138
C            5.37615401833749       -1.05742318646962        0.20039359566744
C            4.36739154124395       -0.08477625272447        0.03287723943242
H            4.36128847587171        3.25476222492272       -0.55263817774823
H            1.94354944308129        2.80837090423100       -0.43819210664144
H            0.28150388157485        2.16733782552696        1.27645097933704
H           -2.14906255059833        1.86337638853501        1.30335055989687
H           -2.56469710151183       -2.19930521542925        1.09507499957691
H           -3.53154448191710       -4.45188431429739        0.89832219590000
H           -5.58637039988578       -4.81045180281565       -0.42296790220483
H           -6.66321023699735       -2.89644651839152       -1.55205812572340
H           -5.68810822565202       -0.64578706472816       -1.37264685427777
H           -3.18900448333990        2.38533178429824       -1.15910293114537
H           -4.69472879381975        4.31665573776426       -0.93485388046053
H           -6.73825808004970        4.14547599917558        0.44051521288718
H           -7.26010643154358        2.02658013884825        1.59625433487905
H           -5.74695600647734        0.09880896741593        1.38820135622137
H           -1.76205670448717       -1.42646849676312       -1.40022448738908
H            0.66661280759131       -1.11972991867710       -1.42465130956456
H            1.63643499517641       -1.98340138147390        0.58399137272925
H            3.37208565560527       -3.66627634550373        0.86272583264433
H            5.76913815253533       -3.12017971320202        0.61722882181743
