52
 energy: -84.960180171245 gnorm: 0.000054099605 xtb: 6.7.1 (edcfbbe)
O            8.54833501643131       -0.65813183354364        0.00976806804522
C            7.43523154471863       -0.20185443008317       -0.03343595744798
C            7.07609674078764        1.29924163904598       -0.28242760203270
O            7.87189201920290        2.18684137236388       -0.45903420523540
C            5.60817464362414        1.36364539528764       -0.24653475321204
C            4.70995487699243        2.39746116750771       -0.37376281706519
C            3.34263995153368        2.10796408935176       -0.29118353465918
C            2.84290793939711        0.83030608014043       -0.09132111235379
C            1.39418971891870        0.61353696592230       -0.06758901952924
C            0.56571828172668        1.42879441820015        0.70384951527372
C           -0.79729578500382        1.23360815091862        0.73136584612295
C           -1.38688175650223        0.22633884273272       -0.03785055447171
N           -2.76295386761130        0.03029895411989       -0.01899540128160
C           -3.30024025803023       -1.25477575343322       -0.18375123532914
C           -2.68687970898725       -2.36055464917650        0.40324106380382
C           -3.22371257369728       -3.62254042074335        0.23693592658227
C           -4.37974431879802       -3.80089350698579       -0.50509649233874
C           -4.99681401996894       -2.70398208990578       -1.08383818716377
C           -4.46294847442194       -1.43916734729475       -0.93029428503821
C           -3.63305582668811        1.11546302142468        0.16518188747519
C           -3.37231858231071        2.34382963745831       -0.44006459373062
C           -4.23526540622064        3.40652201425067       -0.25405729722853
C           -5.37048421792313        3.26012324171721        0.52616957966144
C           -5.63714590904223        2.03905595788753        1.12348904473930
C           -4.77600095324147        0.97282253907197        0.95020153528197
C           -0.56168728328580       -0.57667236666361       -0.83026824360538
C            0.80311939585849       -0.39067272264568       -0.83554313627834
C            3.75437456682353       -0.25265411047927        0.07953260441933
C            3.45281844850238       -1.59996006871552        0.38179144861504
C            4.45489211581326       -2.53050638028763        0.52678423039959
C            5.81485856585413       -2.20265430105549        0.39397901388711
C            6.14393317221783       -0.89585519623048        0.13087368693653
C            5.11660708156464        0.06080327209536       -0.01417706078980
H            5.04557701942710        3.40901154924860       -0.54341214269079
H            2.63697063910098        2.91680731429252       -0.41691927627508
H            1.00543176885307        2.20104542560924        1.31779062211352
H           -1.41918542987090        1.85656684414548        1.35681225728185
H           -1.79288159284817       -2.22134751956754        0.99358785702810
H           -2.74069003414258       -4.47132552511103        0.69815522098173
H           -4.79777776546318       -4.78800769902319       -0.63015851403318
H           -5.89677638953966       -2.83438191768536       -1.66629887619268
H           -4.94067718600666       -0.58552749290399       -1.38835913878225
H           -2.49395143242500        2.45588210201115       -1.05888360694590
H           -4.02395963990851        4.35292169800241       -0.72948499213687
H           -6.04367460330009        4.09191660346539        0.66666143494090
H           -6.51824998912165        1.91719914274864        1.73588680217966
H           -4.98068310786680        0.02311785110667        1.42243281527779
H           -1.00379674206084       -1.34199983600195       -1.45080135284131
H            1.41994906817798       -1.00114967868861       -1.47877963318472
H            2.42350495820285       -1.89679299841727        0.51716246875443
H            4.19171374621882       -3.55213367544135        0.75921746715376
H            6.57684157431887       -2.95758677004645        0.51145162492172
