  52
        -84.96016899
 O          7.7788934717       -0.8887501730        0.1054202695
 C          6.6773076925       -0.4073359450        0.0467688358
 C          6.3558539666        1.0995045383       -0.2174523400
 O          7.1740678224        1.9676539364       -0.3876318434
 C          4.8893980308        1.1973335728       -0.2024927989
 C          4.0166764916        2.2499262554       -0.3516071585
 C          2.6421840252        1.9921959724       -0.2857719349
 C          2.1104468565        0.7285181112       -0.0789002008
 C          0.6572625759        0.5441586991       -0.0700327935
 C         -0.1637326017        1.3961671746        0.6693570928
 C         -1.5302948348        1.2257243208        0.6901439234
 C         -2.1296766346        0.2032864441       -0.0505007522
 N         -3.5079157055        0.0208691794       -0.0288766661
 C         -4.0509818887       -1.2681768750       -0.1311084507
 C         -3.4428203798       -2.3450148963        0.5124959882
 C         -3.9835672198       -3.6119739662        0.4089212099
 C         -5.1381969190       -3.8236078330       -0.3265226639
 C         -5.7498325460       -2.7552499013       -0.9618005838
 C         -5.2122465971       -1.4859300096       -0.8707538840
 C         -4.3697066565        1.1197082646        0.1009296685
 C         -4.0930155554        2.3181733791       -0.5550892736
 C         -4.9496311298        3.3942866221       -0.4255372317
 C         -6.0934344176        3.2912981592        0.3490095453
 C         -6.3747429271        2.1005102613        0.9984857556
 C         -5.5206214208        1.0211987434        0.8812266624
 C         -1.3126845203       -0.6334841262       -0.8158685477
 C          0.0546835420       -0.4687912104       -0.8177486907
 C          2.9950132370       -0.3730383661        0.1157363605
 C          2.6599296363       -1.7098262773        0.4293684240
 C          3.6386707860       -2.6616769158        0.5940262381
 C          5.0070396984       -2.3665545260        0.4725775922
 C          5.3686219871       -1.0700887706        0.2015264568
 C          4.3651776914       -0.0917361100        0.0353603639
 H          4.3774925294        3.2518702879       -0.5263555445
 H          1.9572277494        2.8157019425       -0.4299258155
 H          0.2840248500        2.1770619973        1.2663612429
 H         -2.1471992101        1.8779392164        1.2902402095
 H         -2.5495811059       -2.1790209103        1.0970603304
 H         -3.5045694301       -4.4378964265        0.9137650042
 H         -5.5594546264       -4.8143308916       -0.4025985662
 H         -6.6483852170       -2.9121869166       -1.5398771460
 H         -5.6858743217       -0.6547738828       -1.3722869488
 H         -3.2079265038        2.3959508833       -1.1695723992
 H         -4.7266414005        4.3167945315       -0.9409345212
 H         -6.7617165235        4.1332619369        0.4451139894
 H         -7.2619982474        2.0129575639        1.6078451732
 H         -5.7366993197        0.0954600379        1.3941627947
 H         -1.7636062246       -1.4098806130       -1.4159414113
 H          0.6653330017       -1.1046460723       -1.4419176386
 H          1.6230828648       -1.9820789217        0.5584955255
 H          3.3494043862       -3.6744810287        0.8338777935
 H          5.7502271720       -3.1374590639        0.6053718682
