52
 energy: -84.911806565040 gnorm: 0.000092607291 xtb: 6.7.1 (edcfbbe)
O            7.79916770244197       -0.80850973349504        0.07860374152997
C            6.66439439497204       -0.34369572278480        0.02790267768459
C            6.33443209752263        1.10531692983578       -0.21201063208341
O            7.16297257120239        1.99639692520919       -0.37957911733801
C            4.87314009719247        1.19877768995650       -0.19378764411743
C            4.00304109064093        2.25307425476661       -0.33248935550540
C            2.62795886918551        1.97999305771195       -0.25863091131303
C            2.09967879640102        0.71547298931216       -0.06076243842668
C            0.64636157870973        0.52600205776367       -0.04702415298761
C           -0.17367419396416        1.36303692289810        0.71018482528988
C           -1.54051512005265        1.19213709365848        0.72763992230938
C           -2.13770347985765        0.18311561662569       -0.03200635311163
N           -3.52030462537464        0.00845955362483       -0.02013382243999
C           -4.06897129141061       -1.27581380340727       -0.12123053535057
C           -3.45811379045850       -2.35798057238741        0.51254183756209
C           -4.00433799316006       -3.62222222313573        0.40834156618814
C           -5.16555481823622       -3.82706171639987       -0.31922136044399
C           -5.77846858294513       -2.75436695195826       -0.94649875844724
C           -5.23695416935347       -1.48718976986813       -0.85386857364285
C           -4.36911156199630        1.11675876910793        0.09334667409813
C           -4.06053268884062        2.31294534859483       -0.55437111391915
C           -4.90168029642534        3.40219923781687       -0.43761085571048
C           -6.06071966763411        3.31601513783831        0.31670217867007
C           -6.37342287757875        2.12838038125427        0.95822672552093
C           -5.53605825201373        1.03505528474101        0.85291104836731
C           -1.32234074956538       -0.64484901466276       -0.80737396456432
C            0.04529862622604       -0.47758328768910       -0.80815078395570
C            2.98982362668665       -0.38693001378642        0.11531522066160
C            2.68351440529178       -1.73683894088907        0.41269192339690
C            3.68771670999219       -2.66272831063349        0.56248543178188
C            5.05425063269552       -2.34281071492679        0.44421469707289
C            5.37866871513994       -1.03558108431377        0.18223063235152
C            4.34784933103980       -0.08826465728991        0.03161966391062
H            4.35045195832037        3.26057306168017       -0.49942056243476
H            1.94163612383475        2.80454489907131       -0.39160015840762
H            0.27447582147129        2.13512277280147        1.31780150581512
H           -2.15858600235072        1.83248261198941        1.33936824929020
H           -2.56087497351773       -2.19696714780248        1.09203966904521
H           -3.52478329932708       -4.45165690461812        0.90646794727676
H           -5.59049219249253       -4.81601258094800       -0.39612457706312
H           -6.68095338574890       -2.90640994597236       -1.51949001799689
H           -5.70949907884537       -0.65356538880995       -1.35222396378666
H           -3.16404554935129        2.37698259382433       -1.15347809093155
H           -4.65462742918949        4.32193773431533       -0.94655687081160
H           -6.71638669305656        4.16871570759813        0.40347981694611
H           -7.27211937413107        2.05471037871377        1.55224305390185
H           -5.77499033934324        0.11290931025835        1.36204132127287
H           -1.77386767797368       -1.41194909119362       -1.41905719035625
H            0.65752705488868       -1.10540340021839       -1.43842301607082
H            1.65424265793214       -2.03662639675530        0.54026603579160
H            3.42616849543427       -3.68639735182010        0.78901934821965
H            5.80815563858622       -3.10377128688952        0.57026393693494
