  73
       -114.64767101
 N          9.2598031952        1.1512614351        0.1611999642
 C          9.0499393841        0.0400374381       -0.0342970983
 C          8.8604581096       -1.3346112450       -0.3022894136
 C          9.9924860422       -2.1354059135       -0.4641507763
 C          9.8539098855       -3.4726371464       -0.7780072835
 C          8.5874897588       -4.0154026252       -0.9397959984
 C          7.4637905607       -3.2249939648       -0.7828606183
 C          7.5742654874       -1.8768965999       -0.4555648803
 C          6.3740311007       -1.0491553084       -0.2797673544
 C          6.2458835600       -0.1929448340        0.8118865763
 C          5.1122368514        0.5760755383        0.9747030159
 C          4.0833712735        0.5169076554        0.0373976765
 N          2.9392023259        1.3033193695        0.1915065593
 C          2.9175620299        2.6602229940        0.4555875018
 C          3.9716983698        3.5521889993        0.5894347495
 C          3.6667426190        4.8795517178        0.8244477635
 C          2.3480088940        5.3187956301        0.9156932815
 C          1.2950037756        4.4401288684        0.7570221980
 C          1.5761314689        3.1012535382        0.5207228987
 C          0.7534305791        1.9464463608        0.2875125177
 C         -0.6180312210        1.7505485451        0.2460202667
 C         -1.1157763830        0.4735484379        0.0198886545
 C         -2.5664107275        0.2387204290       -0.0370110125
 C         -3.3936630566        1.1474224837       -0.7118149740
 C         -4.7598156681        0.9757663138       -0.7938693884
 C         -5.3157975962       -0.1318601766       -0.1695306459
 C         -4.4975718196       -1.0719624499        0.4974279082
 C         -3.1259199925       -0.8819069572        0.5626541175
 C         -5.3735078314       -2.1017486552        0.9825556422
 C         -5.1689665396       -3.2633381250        1.7151880109
 C         -6.2618772564       -4.0412791477        2.0409071813
 C         -7.5477837142       -3.6660445521        1.6578085993
 C         -7.7767212943       -2.5152982445        0.9280918947
 C         -6.6796284015       -1.7414866446        0.5774235782
 N         -6.6299983478       -0.5489529260       -0.1161785946
 C         -7.7259122857        0.1268362420       -0.6710189589
 C         -8.6212746934       -0.5488420972       -1.4949967177
 C         -9.7013462399        0.1225050280       -2.0374549102
 C         -9.8920371964        1.4686475292       -1.7731759220
 C         -8.9992218330        2.1435476363       -0.9572636512
 C         -7.9219413025        1.4783712741       -0.4020089672
 C         -0.2244415224       -0.5950125336       -0.1456646092
 C          1.1440702475       -0.4219655890       -0.1128707757
 C          1.6346878808        0.8603669136        0.0865085487
 C          4.2058557002       -0.3372542787       -1.0567647206
 C          5.3337627765       -1.1169435274       -1.2048295914
 H         10.9711134271       -1.6934571176       -0.3455145594
 H         10.7302303840       -4.0905882503       -0.9000022520
 H          8.4767129711       -5.0607407155       -1.1863936369
 H          6.4797671572       -3.6562734070       -0.8953820336
 H          7.0286113165       -0.1490485228        1.5542441993
 H          5.0103611061        1.2157966965        1.8377889065
 H          4.9973386681        3.2277170808        0.5004633130
 H          4.4702673682        5.5923644895        0.9354370009
 H          2.1516771025        6.3639630055        1.1026279973
 H          0.2725179904        4.7824724452        0.8096628249
 H         -1.2903909696        2.5782866517        0.4135277920
 H         -2.9403033475        1.9951490209       -1.2041074133
 H         -5.3725434604        1.6763280646       -1.3411754988
 H         -2.5045732454       -1.5883979144        1.0920006867
 H         -4.1740781172       -3.5452380762        2.0256910026
 H         -6.1245093947       -4.9497335611        2.6082538085
 H         -8.3850850693       -4.2868995927        1.9405329306
 H         -8.7786665787       -2.2239426105        0.6510115326
 H         -8.4560494397       -1.5927497026       -1.7165365100
 H        -10.3922326454       -0.4064602929       -2.6770661248
 H        -10.7344122581        1.9902362360       -2.2014947145
 H         -9.1474865059        3.1916327941       -0.7432827358
 H         -7.2367910533        1.9942777090        0.2541510497
 H         -0.6237928228       -1.5826932644       -0.3225440134
 H          1.8081403376       -1.2651473727       -0.2304198930
 H          3.4214070569       -0.3685345917       -1.7977686124
 H          5.4280227962       -1.7613771442       -2.0668144820
