  78
       -136.83250333
 F         -9.3333987145       -1.1535531376       -0.6906888918
 C         -8.1583098943       -0.5996971434       -0.3581407784
 C         -6.9886191126       -1.2045572516       -0.7239703967
 C         -5.7669733108       -0.6094974813       -0.3607187884
 N         -4.6064653660       -1.2331739068       -0.6594977399
 C         -3.4944950652       -0.6464658431       -0.3162521969
 C         -2.1837966294       -1.2938730086       -0.4999483012
 C         -1.4433241386       -1.6162377139        0.6356556436
 C         -0.1300049241       -2.0167564905        0.5260760570
 C          0.4821363330       -2.0695397676       -0.7243340263
 N          1.8686716751       -2.3056128018       -0.8248375520
 C          2.4404381841       -3.4246231189       -0.2121809845
 C          1.6697694818       -4.4954374807        0.2226195016
 C          2.2598013707       -5.5991241669        0.8194899258
 C          3.6293910324       -5.6546700213        0.9811149287
 C          4.4154066575       -4.6095758676        0.5189344088
 C          3.8321836958       -3.5094260057       -0.0820309254
 O          4.6758110771       -2.5362891515       -0.5523854278
 C          4.1045160185       -1.4276097390       -1.1209010774
 C          4.9668192630       -0.4343339904       -1.5475468774
 C          4.4730677120        0.7358101611       -2.1023880535
 C          3.1088914844        0.9053075589       -2.2165163268
 C          2.2410339214       -0.0924669347       -1.7989911463
 C          2.7186402966       -1.2782974095       -1.2576946299
 C         -0.2835438961       -1.8422481741       -1.8644476781
 C         -1.6092251531       -1.4637159938       -1.7530550868
 C         -3.4925899386        0.6565131899        0.2979145301
 C         -2.1806995139        1.3009994825        0.4815312235
 C         -1.6108382516        1.4743028363        1.7362843221
 C         -0.2843153007        1.8488354692        1.8516226599
 C          0.4863507090        2.0699112990        0.7138199455
 N          1.8730999717        2.3029702138        0.8195224908
 C          2.4504501671        3.4204367970        0.2093741772
 C          1.6842822246        4.4895517567       -0.2374758466
 C          2.2806076294        5.5917566108       -0.8308342722
 C          3.6520143634        5.6480097629       -0.9763809360
 C          4.4331509767        4.6045327008       -0.5025137141
 C          3.8435660755        3.5054047769        0.0941831165
 O          4.6825333250        2.5336611012        0.5755613473
 C          4.1054341487        1.4230623307        1.1348378917
 C          4.9630798680        0.4278560095        1.5661406481
 C          4.4633563153       -0.7432507467        2.1136171665
 C          3.0980887077       -0.9116872059        2.2154563081
 C          2.2347571276        0.0876647252        1.7923125572
 C          2.7182779034        1.2744248221        1.2582252361
 C         -0.1207231226        2.0139517091       -0.5390122682
 C         -1.4345527565        1.6164788973       -0.6524449671
 N         -4.6025854596        1.2430792962        0.6478578621
 C         -5.7648000054        0.6195371296        0.3556263898
 C         -6.9840492113        1.2129724755        0.7293377271
 C         -8.1559966730        0.6060599277        0.3742831395
 F         -9.3289899242        1.1582020720        0.7171109119
 H         -6.9888082370       -2.1308260025       -1.2747796741
 H         -1.8995070374       -1.5330451980        1.6113325184
 H          0.4405324357       -2.2590796479        1.4091968372
 H          0.5996728440       -4.4687089758        0.0860207390
 H          1.6368549093       -6.4149188574        1.1525646397
 H          4.0934418802       -6.5076459989        1.4505231762
 H          5.4895177465       -4.6318037211        0.6100475077
 H          6.0257877441       -0.5943111710       -1.4254490603
 H          5.1525190738        1.5075951800       -2.4269962931
 H          2.7088749904        1.8183821114       -2.6327365437
 H          1.1771096752        0.0574517381       -1.8838645279
 H          0.1721156794       -1.9437771958       -2.8381479633
 H         -2.1932228531       -1.2648014250       -2.6390141252
 H         -2.1988274818        1.2801711115        2.6206412758
 H          0.1679489224        1.9516951280        2.8267623114
 H          0.6127229230        4.4632107421       -0.1129084159
 H          1.6610214978        6.4061333898       -1.1735256018
 H          4.1208443696        6.5002622966       -1.4423148211
 H          5.5083445094        4.6269112935       -0.5805802860
 H          6.0231548398        0.5873078652        1.4541704462
 H          5.1389647119       -1.5164604457        2.4425511640
 H          2.6936670816       -1.8252928229        2.6262366931
 H          1.1698870472       -0.0611917569        1.8677078091
 H          0.4544477898        2.2514768170       -1.4203853089
 H         -1.8872911980        1.5307160292       -1.6294790154
 H         -6.9805734004        2.1394314006        1.2798610105
