  97
  -147.566709405300       0.552484131694547      !
 C         -2.6358922505       -0.0280455258        2.8690526390
 C         -3.6631735761       -1.1229245528        3.1273159530
 C         -4.7199223345       -1.2168626371        2.0271081878
 C         -5.6290000384        0.0129204656        1.9739672338
 C         -6.9521748833       -0.2618874405        1.2571361810
 C         -6.7879590820       -0.4507725326       -0.2511153500
 C         -6.5616972100        0.8760029448       -0.9837014694
 C         -5.5269214516        0.7482686692       -2.1032039315
 N         -4.2035532264        0.5655453129       -1.5570091068
 C         -3.5447333295       -0.6631936521       -1.5293766252
 O         -3.9986437198       -1.6797256453       -2.0404233831
 C         -2.2836124058       -0.4039899236       -0.8502229186
 C         -1.1278865999       -1.1374727352       -0.4712579847
 C         -0.9594393341       -2.5193662047       -0.2982004426
 C         -2.0790041375       -3.3889655428       -0.3727438571
 C         -2.0101022358       -4.6769117336        0.0820430685
 C         -0.8209233678       -5.1832613397        0.6166999642
 C          0.3127951345       -4.3935085573        0.6138643154
 C          0.2792324165       -3.0950011849        0.1251111795
 N          1.4848649178       -2.4038943781       -0.0064530548
 C          2.4884905710       -2.3810115227        0.9387026265
 C          2.4157287911       -2.6649978547        2.2949051393
 C          3.5739860335       -2.5455175926        3.0409848262
 C          4.7759732309       -2.1614251404        2.4534475263
 C          4.8479554372       -1.8572791166        1.1048635480
 C          3.6946239884       -1.9472129728        0.3431664805
 C          3.3931635807       -1.6993964402       -1.0419003461
 C          4.1610599875       -1.3276337589       -2.1329755682
 C          3.5479577473       -1.2153428174       -3.3679519353
 C          2.1883888448       -1.4752717863       -3.5201367415
 C          1.4063491229       -1.8658533450       -2.4504753321
 C          2.0169754365       -1.9772200513       -1.2097183899
 S          0.0976244199        0.0096028130        0.0878368880
 C         -1.0080769541        1.3815455813        0.0197573817
 C         -0.6594764140        2.6119601591        0.6287207942
 C         -1.6722306555        3.4820860404        1.0859224182
 C         -1.3781769264        4.5477812997        1.8971321490
 C         -0.0607493828        4.8053597270        2.2781759453
 C          0.9591159443        4.0172974907        1.7822835366
 C          0.6861150606        2.9483369050        0.9371286964
 N          1.7528251330        2.2829711103        0.3303361808
 C          2.9253127920        1.9275726688        0.9597922427
 C          3.1792269773        1.7826670331        2.3168518004
 C          4.4512313192        1.4005546825        2.6965568617
 C          5.4488010103        1.1670535261        1.7529047048
 C          5.1910897340        1.2784426693        0.3981813263
 C          3.9182049507        1.6462909634       -0.0064196787
 C          3.3011535594        1.8483599471       -1.2900849824
 C          3.7698802973        1.7814558636       -2.5922635261
 C          2.8967886886        2.0664162401       -3.6267592393
 C          1.5787300456        2.4301206950       -3.3699649655
 C          1.0955585277        2.5248674691       -2.0777176106
 C          1.9630477753        2.2251780158       -1.0385448427
 C         -2.2201532379        0.9622613625       -0.5455599300
 C         -3.4715981911        1.5904040253       -0.9881529347
 O         -3.8477084064        2.7515012969       -0.9319495663
 H         -2.0958807772       -0.2416598490        1.9558538090
 H         -3.1183690404        0.9395336566        2.7725163644
 H         -1.9212754503        0.0266842209        3.6883530062
 H         -3.1450642518       -2.0824629398        3.1992223242
 H         -4.1573593548       -0.9415020932        4.0843726979
 H         -4.2196255185       -1.3570041983        1.0715050631
 H         -5.3336165195       -2.0995660725        2.2178755048
 H         -5.1103020833        0.8297513594        1.4777244560
 H         -5.8516922515        0.3269044440        2.9960986786
 H         -7.4013820337       -1.1606943571        1.6845204418
 H         -7.6400566892        0.5669465224        1.4390385654
 H         -7.6777862274       -0.9393161059       -0.6522156416
 H         -5.9466072338       -1.1128087323       -0.4290206525
 H         -7.4964952436        1.2424226098       -1.4089691683
 H         -6.1968170660        1.6265062350       -0.2865375590
 H         -5.5229523364        1.6558829333       -2.7119323034
 H         -5.7369136168       -0.1206057980       -2.7272151975
 H         -2.9946233697       -3.0101360938       -0.7884798481
 H         -2.8843346831       -5.3081419927        0.0327079921
 H         -0.7736926440       -6.1974598137        0.9800568252
 H          1.2573200682       -4.7982438592        0.9461613091
 H          1.4840855392       -2.9646782660        2.7500965574
 H          3.5461463830       -2.7617659358        4.0982627387
 H          5.6640461115       -2.0981518878        3.0635377924
 H          5.7819102561       -1.5618886564        0.6541919324
 H          5.2178863602       -1.1417859356       -2.0191797541
 H          4.1295706121       -0.9337622678       -4.2323481579
 H          1.7376168493       -1.3800275263       -4.4963530666
 H          0.3581043395       -2.0832633484       -2.5779747902
 H         -2.6870012262        3.2861217831        0.7911681914
 H         -2.1727327717        5.1880633648        2.2485229304
 H          0.1669508724        5.6414673146        2.9204932065
 H          1.9882242121        4.2524987407        2.0090752947
 H          2.4060220890        1.9601837298        3.0485801169
 H          4.6778737576        1.2845777088        3.7454456167
 H          6.4367970594        0.8918344546        2.0895647174
 H          5.9634599351        1.0863038599       -0.3308729567
 H          4.7989793780        1.5275242280       -2.7919667013
 H          3.2408113210        2.0166418008       -4.6485710899
 H          0.9197828054        2.6538936500       -4.1955363551
 H          0.0775280819        2.8258719593       -1.8906103748
  97
  -147.565837381500       0.219566165673256      !
 C         -3.2450643713        2.9026948301       -3.0614341175
 C         -2.6373650572        1.6630305245       -2.4166178536
 C         -3.6830061580        0.6362473612       -1.9804527625
 C         -4.6152869513        1.1540431322       -0.8861779624
 C         -5.4467076101        0.0259625020       -0.2784792011
 C         -6.2621488889        0.4818886710        0.9402492304
 C         -6.4178879660       -0.6208965547        1.9965122704
 C         -5.3236515374       -0.5502145677        3.0712071694
 N         -4.0081039659       -0.4894659155        2.4863562251
 C         -3.3894808326       -1.5560270530        1.8564487504
 O         -3.7969475993       -2.7068735230        1.9081126171
 C         -2.2022272237       -0.9796250183        1.2134052499
 C         -1.1479522998       -1.4362930016        0.4021256964
 C         -0.9825839030       -2.6623824663       -0.2806327797
 C         -2.0832194471       -3.5336770246       -0.4534258688
 C         -2.0267700511       -4.5870882877       -1.3276575678
 C         -0.8661001855       -4.8393819502       -2.0616173847
 C          0.2533175074       -4.0588252163       -1.8505883902
 C          0.2289621485       -3.0032716685       -0.9472648637
 N          1.4305479031       -2.3588348942       -0.6466186956
 C          2.0182780863       -2.3458519611        0.6091027102
 C          1.4659792276       -2.6497959003        1.8436573603
 C          2.2948439971       -2.6077829629        2.9498777391
 C          3.6443763558       -2.2906987638        2.8331141403
 C          4.2024384234       -2.0000251541        1.6010818630
 C          3.3858478575       -2.0150160352        0.4819423216
 C          3.6259060758       -1.7952659017       -0.9193686606
 C          4.7476993280       -1.4593461508       -1.6595017573
 C          4.6195789498       -1.3207787473       -3.0301500933
 C          3.3891025399       -1.4954376822       -3.6592197242
 C          2.2608765193       -1.8456385796       -2.9434819441
 C          2.3924090349       -2.0191914561       -1.5724961783
 S         -0.0386602072       -0.0953476364        0.1081909154
 C         -1.0664317297        1.0802239066        0.9335664602
 C         -0.8716199196        2.4615614479        0.7507205858
 C         -1.8843152999        3.3835252323        1.1226848692
 C         -1.8697230381        4.6782400655        0.6800553330
 C         -0.8363661481        5.1406358457       -0.1393352815
 C          0.2159521076        4.2969459853       -0.4375052877
 C          0.2428388923        2.9899000713        0.0291110865
 N          1.4059068994        2.2448236942       -0.1782004886
 C          2.2388499625        1.7952075786        0.8304890315
 C          1.9858116786        1.6740259403        2.1887958911
 C          3.0219636051        1.2573434768        3.0019358524
 C          4.2841353721        0.9802275467        2.4829364304
 C          4.5406238525        1.1011447272        1.1290466326
 C          3.5120903177        1.4996485052        0.2912312090
 C          3.4292873196        1.7622769699       -1.1212912738
 C          4.3302964596        1.6738834933       -2.1697484122
 C          3.8971482338        1.9990415509       -3.4436656481
 C          2.5850098262        2.4010236987       -3.6773449795
 C          1.6757783708        2.5210274701       -2.6423971424
 C          2.1137701498        2.2181873777       -1.3614962006
 C         -2.1530608878        0.3858617330        1.5233213111
 C         -3.2970494312        0.6996246518        2.3746414971
 O         -3.6215558410        1.7280895967        2.9545126454
 H         -2.4615466243        3.5635701958       -3.4266080350
 H         -3.8807051245        2.6282226977       -3.9008637834
 H         -3.8418191516        3.4549275742       -2.3407796495
 H         -1.9581795951        1.1864219793       -3.1282955649
 H         -2.0551250411        1.9681792470       -1.5494193299
 H         -4.2717129802        0.3253912711       -2.8460409507
 H         -3.1596509284       -0.2440521670       -1.6036032977
 H         -5.2787827924        1.9180578103       -1.2906695473
 H         -4.0123486366        1.6134582549       -0.1033927532
 H         -6.1164404944       -0.3861062145       -1.0369150971
 H         -4.7712590186       -0.7741233305        0.0154113990
 H         -7.2479281051        0.8155088931        0.6123322416
 H         -5.7689109894        1.3339877553        1.4034329927
 H         -7.3793934763       -0.5305363440        2.5032841818
 H         -6.3791267745       -1.5972837485        1.5160470376
 H         -5.3862997805       -1.4242554178        3.7237203757
 H         -5.4374304343        0.3614350934        3.6593225481
 H         -2.9782436767       -3.3491054206        0.1119943486
 H         -2.8892604745       -5.2235513329       -1.4532161727
 H         -0.8264264415       -5.6660913364       -2.7531892753
 H          1.1807525909       -4.2922544581       -2.3516407792
 H          0.4256734634       -2.9142867088        1.9430601728
 H          1.8861412658       -2.8362815750        3.9227753403
 H          4.2626531025       -2.2813404904        3.7177656217
 H          5.2545639625       -1.7809964711        1.5091093983
 H          5.7006275709       -1.3126180306       -1.1744254788
 H          5.4836923384       -1.0701530568       -3.6265215040
 H          3.3170746395       -1.3583960364       -4.7273956842
 H          1.3072946492       -1.9787527839       -3.4308794008
 H         -2.6836910329        3.0408756216        1.7543142699
 H         -2.6673460822        5.3481173375        0.9633478469
 H         -0.8320523291        6.1592796976       -0.4932336639
 H          1.0615284828        4.6619123933       -1.0011949746
 H          1.0149610778        1.9042245236        2.5976736694
 H          2.8521957582        1.1540965448        4.0630060175
 H          5.0735053869        0.6772303794        3.1536768260
 H          5.5232436156        0.9007369380        0.7306077041
 H          5.3482152697        1.3641212988       -1.9950431207
 H          4.5846835561        1.9378458884       -4.2734158398
 H          2.2731742645        2.6318222663       -4.6848357028
 H          0.6591208346        2.8356535393       -2.8201586467
  97
  -147.565689275100       0.187715627273466      !
 C         -3.4246408652        3.3363179042       -2.9372435613
 C         -2.7284216494        2.1157021126       -2.3477454206
 C         -3.6972272779        1.0020854252       -1.9493414579
 C         -4.6470823160        1.4034108240       -0.8224909568
 C         -5.4269600848        0.2020143411       -0.2916732001
 C         -6.2622400733        0.5467357642        0.9489254986
 C         -6.4344531601       -0.6453492906        1.9000177430
 C         -5.3571562669       -0.6719569916        2.9933387392
 N         -4.0319123682       -0.5986892925        2.4322985326
 C         -3.4170989453       -1.6450532215        1.7685473716
 O         -3.8477574291       -2.7884286084        1.7597088302
 C         -2.2102081678       -1.0593755520        1.1689359957
 C         -1.1411257309       -1.4962835108        0.3662312583
 C         -0.9442845715       -2.7198630319       -0.3157667816
 C         -2.0245419519       -3.6146199247       -0.4943554309
 C         -1.9363340130       -4.6776856453       -1.3545923305
 C         -0.7621732361       -4.9155599209       -2.0707117555
 C          0.3367824108       -4.1074200486       -1.8571190251
 C          0.2801118923       -3.0415978631       -0.9671766823
 N          1.4683698183       -2.3700378367       -0.6682064839
 C          2.0618530387       -2.3532472301        0.5844816303
 C          1.5175325098       -2.6644091734        1.8206420641
 C          2.3513321182       -2.6191232352        2.9230295647
 C          3.6977756005       -2.2914855435        2.8004600891
 C          4.2473153024       -1.9908811978        1.5669462706
 C          3.4253720160       -2.0080693983        0.4518220832
 C          3.6563313881       -1.7816534942       -0.9499954304
 C          4.7704052578       -1.4309012484       -1.6949933290
 C          4.6343245639       -1.2928762414       -3.0649179057
 C          3.4038128890       -1.4842233085       -3.6889743894
 C          2.2832473131       -1.8488039358       -2.9683980062
 C          2.4226629260       -2.0190617291       -1.5978437355
 S         -0.0393035767       -0.1428522780        0.1051422199
 C         -1.0732754880        1.0092290622        0.9557657573
 C         -0.8831855781        2.3942283280        0.8104134746
 C         -1.8904900226        3.3058231998        1.2238590208
 C         -1.8910691919        4.6078848415        0.8035790038
 C         -0.8784928186        5.0891574107       -0.0313929591
 C          0.1743259149        4.2578647421       -0.3619262645
 C          0.2187055294        2.9442144327        0.0838432417
 N          1.3856393313        2.2124598247       -0.1459549578
 C          2.2328363377        1.7627075900        0.8510259865
 C          1.9916369321        1.6223697494        2.2095240548
 C          3.0409202759        1.2155190831        3.0107324270
 C          4.3039448927        0.9668715282        2.4797053983
 C          4.5478334398        1.1045722172        1.1249994344
 C          3.5060476141        1.4925222519        0.2987963127
 C          3.4074695075        1.7673408808       -1.1105337694
 C          4.2998703469        1.6990313022       -2.1677269165
 C          3.8510818762        2.0296217341       -3.4348308394
 C          2.5325663786        2.4193021140       -3.6529220934
 C          1.6314758952        2.5197004827       -2.6088023261
 C          2.0841540433        2.2086601432       -1.3350082005
 C         -2.1618867409        0.2967721715        1.5205115319
 C         -3.3075703528        0.5872311554        2.3758832023
 O         -3.6225368644        1.5914980028        3.0013138500
 H         -2.6905284295        4.0609617806       -3.2826158445
 H         -4.0503353972        3.0531525005       -3.7806232857
 H         -4.0480068487        3.8191865716       -2.1904899343
 H         -2.0258556517        1.7159821632       -3.0838906038
 H         -2.1611592770        2.4235061818       -1.4716969056
 H         -4.2755943905        0.6932732443       -2.8225171196
 H         -3.1116423513        0.1422786038       -1.6198393152
 H         -5.3451175518        2.1621081424       -1.1751394737
 H         -4.0617242054        1.8351383019       -0.0112840494
 H         -6.0786769161       -0.1893687505       -1.0764599404
 H         -4.7175022079       -0.5849990001       -0.0465394218
 H         -7.2422454201        0.9093895804        0.6345180956
 H         -5.7767247715        1.3537294399        1.4938109411
 H         -7.4037600239       -0.5986030623        2.3977288983
 H         -6.3879839214       -1.5756184558        1.3357506155
 H         -5.4449733403       -1.5894977435        3.5796845797
 H         -5.4639726402        0.1974431549        3.6433595133
 H         -2.9308031608       -3.4418544068        0.0568849360
 H         -2.7844154456       -5.3328748289       -1.4815087707
 H         -0.6957445061       -5.7505168079       -2.7502522887
 H          1.2747637473       -4.3255209678       -2.3455240367
 H          0.4796847356       -2.9376219025        1.9231631848
 H          1.9494940311       -2.8537510281        3.8973114768
 H          4.3206066466       -2.2810800436        3.6818693917
 H          5.2971751306       -1.7629614820        1.4706043840
 H          5.7236638192       -1.2725529050       -1.2141986569
 H          5.4923599947       -1.0299492903       -3.6647911001
 H          3.3256453411       -1.3492815449       -4.7570146292
 H          1.3296698821       -1.9962744580       -3.4517857221
 H         -2.6735992305        2.9482026583        1.8676320571
 H         -2.6851192772        5.2692172911        1.1154850001
 H         -0.8888071750        6.1127043885       -0.3705019537
 H          1.0071415432        4.6379052311       -0.9345365917
 H          1.0199316747        1.8313353132        2.6276381537
 H          2.8807652140        1.0978907594        4.0717450730
 H          5.1039345431        0.6724294878        3.1416099515
 H          5.5308370321        0.9255194070        0.7174487063
 H          5.3228876688        1.3997353710       -2.0051002970
 H          4.5314009415        1.9827294780       -4.2714247283
 H          2.2090803128        2.6554860508       -4.6554659814
 H          0.6100506706        2.8255788383       -2.7739883484
  97
  -147.564233764400       4.023407535873046E-002 !
 C         -2.6471793276       -4.0547050426        2.2829255933
 C         -3.8833488396       -3.1880198500        2.4964076756
 C         -3.5917628582       -1.7194091476        2.2012918158
 C         -4.8020105089       -0.7992855623        2.3669439970
 C         -5.9524057270       -1.1690266564        1.4309441522
 C         -7.0170036970       -0.0799043925        1.3001841276
 C         -6.5408420034        1.2291895701        0.6678529783
 C         -5.8967280275        1.0715708108       -0.7157038747
 N         -4.4665227296        0.8843268697       -0.6365625947
 C         -3.8197979976       -0.2784647996       -1.0428452001
 O         -4.4072111016       -1.1998577205       -1.5983358622
 C         -2.4125980370       -0.0698361523       -0.7226627799
 C         -1.2049360038       -0.8212902307       -0.7305975166
 C         -0.9789600942       -2.1862758905       -0.9818380064
 C         -2.0226554824       -2.9977214124       -1.4995866471
 C         -1.8037749592       -4.2850010367       -1.9076853478
 C         -0.5304796750       -4.8540493471       -1.8169381651
 C          0.4973900236       -4.1133241201       -1.2676061685
 C          0.2947226865       -2.8170539867       -0.8124510790
 N          1.3671938640       -2.1936245008       -0.1668403039
 C          1.4124451923       -1.8423802941        1.1720452730
 C          0.3768839760       -1.7514619057        2.0893910455
 C          0.6935477084       -1.3666619323        3.3788866004
 C          2.0057088530       -1.0850576901        3.7512422736
 C          3.0440820752       -1.1997721460        2.8439655286
 C          2.7504339431       -1.5851229953        1.5452940305
 C          3.5542877315       -1.8241514246        0.3762587090
 C          4.9162875924       -1.7941283523        0.1260947853
 C          5.3605684252       -2.0852693527       -1.1515623891
 C          4.4644429832       -2.3847232144       -2.1747770724
 C          3.1034314420       -2.4448350501       -1.9420921374
 C          2.6570924068       -2.1892892333       -0.6530087353
 S          0.1206998907        0.2695064038       -0.3315804066
 C         -0.9347474223        1.6371951192       -0.0111189251
 C         -0.4063079150        2.8492657716        0.5005834703
 C         -1.2603941744        3.7734526534        1.1439838745
 C         -0.7708025856        4.8721652160        1.8013418840
 C          0.6015208434        5.1177247899        1.8426556417
 C          1.4598724923        4.2642849865        1.1792957479
 C          0.9853680629        3.1536350429        0.4899213005
 N          1.9093047473        2.4011832510       -0.2379942146
 C          3.1528964778        2.0303719836        0.2319824363
 C          3.6354005403        2.0368132063        1.5328238741
 C          4.9458795518        1.6456005048        1.7346379307
 C          5.7548174103        1.2480693007        0.6735768781
 C          5.2600235073        1.1862990945       -0.6169636363
 C          3.9468711599        1.5666823271       -0.8408883426
 C          3.1270232837        1.6566856871       -2.0195301447
 C          3.3430641243        1.3568525285       -3.3557232273
 C          2.3329604225        1.6174956954       -4.2639875516
 C          1.1295967558        2.1865781253       -3.8542765508
 C          0.8902197039        2.4873377298       -2.5265479711
 C          1.8885098077        2.1983171935       -1.6073736734
 C         -2.2640762160        1.2447357163       -0.2516632459
 C         -3.5966224343        1.8628452289       -0.2000765807
 O         -3.9523706695        2.9841063563        0.1323774443
 H         -2.8771952917       -5.1011925025        2.4698176339
 H         -2.2951011338       -3.9599359161        1.2579238198
 H         -1.8457963200       -3.7573757785        2.9565488795
 H         -4.6719135393       -3.5371486689        1.8320823811
 H         -4.2344394240       -3.2942986976        3.5250740067
 H         -2.7953672141       -1.3739706806        2.8646946570
 H         -3.2341983195       -1.6442244938        1.1753969824
 H         -4.4769639478        0.2177923738        2.1537099934
 H         -5.1495094752       -0.8276005971        3.4025040659
 H         -5.5564513480       -1.3980596884        0.4464140474
 H         -6.4423756101       -2.0695220734        1.8050171099
 H         -7.4222414914        0.1502523548        2.2886240496
 H         -7.8343945976       -0.4783446916        0.6942540186
 H         -7.4049666406        1.8880501443        0.5690291826
 H         -5.8287579920        1.7269541791        1.3210073080
 H         -6.0891913508        1.9701846587       -1.3087794268
 H         -6.2964814260        0.2000499019       -1.2335904361
 H         -3.0044921260       -2.5695566607       -1.5951620349
 H         -2.6230001846       -4.8649996413       -2.3045201273
 H         -0.3585989573       -5.8700680365       -2.1346673904
 H          1.4739572565       -4.5560547226       -1.1369364555
 H         -0.6394792987       -1.9636245596        1.8042693404
 H         -0.0936644190       -1.2801539063        4.1137895650
 H          2.2120181065       -0.7807224332        4.7663489399
 H          4.0620869991       -0.9962960507        3.1376445566
 H          5.6119623436       -1.5513239735        0.9136722796
 H          6.4191024815       -2.0754326470       -1.3636085241
 H          4.8404511098       -2.5858150621       -3.1666165616
 H          2.4092414479       -2.6850551136       -2.7327520743
 H         -2.3205530670        3.6001041197        1.1084916397
 H         -1.4540883535        5.5496576746        2.2898333510
 H          0.9886053268        5.9844687869        2.3549570599
 H          2.5182457317        4.4761766538        1.1490853204
 H          3.0098343401        2.3398890726        2.3579937186
 H          5.3528059817        1.6601706160        2.7347576177
 H          6.7822738456        0.9770414456        0.8651971479
 H          5.8815906561        0.8558137607       -1.4344973050
 H          4.2824972655        0.9334423371       -3.6764423787
 H          2.4785003432        1.3878978244       -5.3086349863
 H          0.3662389714        2.3971003207       -4.5883827655
 H         -0.0441603707        2.9276193736       -2.2162994939
