  97
       -148.20599573
 C         -2.6191205809        3.0842452343       -3.4577590465
 C         -2.1089691701        1.8072522139       -2.8013381259
 C         -3.1717364600        0.7120809008       -2.7063936941
 C         -4.3513046373        1.0937126800       -1.8132680723
 C         -5.2389440639       -0.1122605924       -1.5118568590
 C         -6.3295943837        0.1993783651       -0.4767360058
 C         -6.6617842773       -1.0041380172        0.4161692053
 C         -5.8420091925       -1.0041063700        1.7143553400
 N         -4.4336094620       -0.8475630964        1.4529919127
 C         -3.6353928852       -1.8293413413        0.8908598624
 O         -3.9844229010       -2.9916239244        0.7479502271
 C         -2.3652352423       -1.1580592008        0.5885434203
 C         -1.1336580342       -1.5024139129        0.0030067529
 C         -0.7564407830       -2.6515423455       -0.7277546373
 C         -1.7439239693       -3.5350843277       -1.2223663864
 C         -1.4385519009       -4.4972876597       -2.1486792573
 C         -0.1313009399       -4.6425300124       -2.6171909711
 C          0.8705286978       -3.8523737559       -2.0890920318
 C          0.5897427443       -2.8898669291       -1.1270526739
 N          1.6583880156       -2.2412724613       -0.5051059714
 C          1.9475853851       -2.3313987874        0.8479179384
 C          1.1484502995       -2.7693105518        1.8925028001
 C          1.7043842884       -2.8088689318        3.1581559730
 C          3.0275563695       -2.4413119354        3.3807120618
 C          3.8324142670       -2.0166710597        2.3387370897
 C          3.2899389063       -1.9486137065        1.0657065041
 C          3.8270122482       -1.5878721162       -0.2192091618
 C          5.0676235436       -1.1484844830       -0.6515068627
 C          5.2437044835       -0.8826079653       -1.9978343851
 C          4.1965987223       -1.0330921156       -2.9040521210
 C          2.9559403922       -1.4845352753       -2.4981196472
 C          2.7848999555       -1.7851479748       -1.1537236685
 S         -0.0570266614       -0.1064425949        0.0878008624
 C         -1.3028842833        0.9525943607        0.7554887070
 C         -1.1431544249        2.3503779109        0.7426365737
 C         -2.2594799628        3.2011879901        0.9520788897
 C         -2.2123228636        4.5323333475        0.6386325861
 C         -1.0464587135        5.1025013865        0.1202635194
 C          0.0878302124        4.3236643829       -0.0017741751
 C          0.0762813680        2.9791983399        0.3433351476
 N          1.2928698830        2.2930813924        0.3432611766
 C          1.8999168212        1.7739104747        1.4725790764
 C          1.3548120307        1.5149798173        2.7213891378
 C          2.2018330478        1.0535436071        3.7103601724
 C          3.5608459801        0.8659931963        3.4713206330
 C          4.1083295780        1.1243401483        2.2275588181
 C          3.2751976371        1.5702955034        1.2148218495
 C          3.4984136004        1.9650015816       -0.1509861740
 C          4.6152170308        2.0052260348       -0.9695369295
 C          4.4631712719        2.4381990511       -2.2755333790
 C          3.2181886798        2.8208947439       -2.7669244960
 C          2.0947958443        2.8131703941       -1.9606065427
 C          2.2488405152        2.4018760977       -0.6447937202
 C         -2.4570999870        0.1721278676        1.0188718916
 C         -3.7776347775        0.3677375700        1.6103342548
 O         -4.2764534257        1.3253326368        2.1878173679
 H         -1.8085860571        3.8006087104       -3.5755107123
 H         -3.0350212030        2.8727069954       -4.4407618586
 H         -3.3900374718        3.5462483777       -2.8472998942
 H         -1.2637378692        1.4221191090       -3.3776976506
 H         -1.7528445726        2.0450218199       -1.8009415325
 H         -3.5342225913        0.4682823127       -3.7072014658
 H         -2.7019184131       -0.1841479880       -2.2978741030
 H         -4.9453145091        1.8726673708       -2.2906991811
 H         -3.9639973747        1.4937112637       -0.8766017670
 H         -5.6991484749       -0.4695194438       -2.4360569374
 H         -4.6066087561       -0.9160976924       -1.1420761144
 H         -7.2323221395        0.5330090114       -0.9909012106
 H         -5.9974071274        1.0174913784        0.1590614437
 H         -7.7158870086       -0.9921119661        0.6958089559
 H         -6.4660241529       -1.9281369684       -0.1256657641
 H         -6.0046673168       -1.9383751143        2.2568771759
 H         -6.1316251536       -0.1571446694        2.3378205863
 H         -2.7513436812       -3.4329584824       -0.8624901484
 H         -2.2169618683       -5.1445319457       -2.5227015273
 H          0.1050811610       -5.3972727161       -3.3505265346
 H          1.8975373728       -4.0083208142       -2.3833916038
 H          0.1273845751       -3.0735106395        1.7283093683
 H          1.0998808342       -3.1421944451        3.9883661614
 H          3.4300121874       -2.4984124319        4.3805774549
 H          4.8656465629       -1.7580583755        2.5088874656
 H          5.8784254910       -1.0203347090        0.0492628647
 H          6.2056564668       -0.5497139140       -2.3569917003
 H          4.3594015946       -0.7961417542       -3.9443972867
 H          2.1443249101       -1.5989370051       -3.2001072601
 H         -3.1616315352        2.7753064468        1.3522207016
 H         -3.0865049693        5.1473864189        0.7893246363
 H         -1.0150618440        6.1501344708       -0.1334629641
 H          1.0185335139        4.7666098209       -0.3235452925
 H          0.3064255479        1.6752681451        2.9161113737
 H          1.8036012691        0.8435794637        4.6915214512
 H          4.1938738782        0.5238943372        4.2757142137
 H          5.1642945561        0.9930424273        2.0482341570
 H          5.5824084790        1.7110479078       -0.5945260069
 H          5.3217235472        2.4779743875       -2.9284047464
 H          3.1291922624        3.1380244554       -3.7950564610
 H          1.1292685200        3.1125198599       -2.3378705683
  97
       -148.20595153
 C         -2.8217787723        3.4440525172       -3.4150620450
 C         -2.2213234126        2.2038879093       -2.7642339021
 C         -3.2026070244        1.0350274744       -2.6731298581
 C         -4.4002804868        1.3219120341       -1.7696066167
 C         -5.2236420370        0.0612410244       -1.5124788324
 C         -6.3329549322        0.2865723971       -0.4760130476
 C         -6.6605876731       -0.9782857012        0.3290281692
 C         -5.8585285635       -1.0548772231        1.6357271743
 N         -4.4455572350       -0.9000764128        1.3991803625
 C         -3.6488268818       -1.8747223210        0.8258351622
 O         -4.0129971017       -3.0265419256        0.6426855675
 C         -2.3659686718       -1.2098250862        0.5587696948
 C         -1.1239800335       -1.5529975234       -0.0050189334
 C         -0.7216064024       -2.7153859403       -0.7035625915
 C         -1.6909071662       -3.6260311679       -1.1837928585
 C         -1.3613254703       -4.6182690171       -2.0696465974
 C         -0.0458872232       -4.7664359132       -2.5120644100
 C          0.9376908132       -3.9441982511       -1.9993121357
 C          0.6319462459       -2.9505057029       -1.0772051834
 N          1.6894103797       -2.2681553693       -0.4701627011
 C          1.9826700345       -2.3279252966        0.8834096463
 C          1.1877739510       -2.7473038937        1.9386162705
 C          1.7475421502       -2.7601904687        3.2031415980
 C          3.0701828742       -2.3842027275        3.4141736294
 C          3.8700463081       -1.9753903292        2.3620310026
 C          3.3233968027       -1.9331860988        1.0897176470
 C          3.8547959796       -1.5951718931       -0.2037505769
 C          5.0910968335       -1.1562650605       -0.6488691959
 C          5.2622456671       -0.9197106940       -2.0012790125
 C          4.2150205525       -1.1002320346       -2.9018070698
 C          2.9785677426       -1.5512787500       -2.4828107966
 C          2.8120111203       -1.8199079565       -1.1311671013
 S         -0.0554257411       -0.1514660878        0.0836208248
 C         -1.3071510578        0.9019777764        0.7494958030
 C         -1.1533322233        2.2990434597        0.7438682713
 C         -2.2690877287        3.1464704578        0.9753025141
 C         -2.2347517635        4.4758571679        0.6535072945
 C         -1.0828826190        5.0485932863        0.1064394844
 C          0.0546872783        4.2763275048       -0.0287172541
 C          0.0577369360        2.9347807163        0.3270917564
 N          1.2789466427        2.2575567132        0.3225071380
 C          1.8984792915        1.7595845079        1.4548471150
 C          1.3629386650        1.5103187237        2.7096186761
 C          2.2214046842        1.0758676875        3.7009542635
 C          3.5819278286        0.9056937245        3.4579232152
 C          4.1193488909        1.1521260643        2.2072749611
 C          3.2747062119        1.5698424457        1.1921265464
 C          3.4849362435        1.9468256343       -0.1808779007
 C          4.5955561151        1.9849093225       -1.0077853564
 C          4.4302853097        2.3963257793       -2.3191493549
 C          3.1787325754        2.7617615392       -2.8069712176
 C          2.0611323979        2.7563852859       -1.9926181495
 C          2.2277705121        2.3640677037       -0.6725674965
 C         -2.4611782756        0.1168716218        1.0013619928
 C         -3.7828440018        0.3078265401        1.5890302512
 O         -4.2772155552        1.2523494148        2.1910207874
 H         -2.0628641545        4.2142190257       -3.5342425043
 H         -3.2266685967        3.2065714624       -4.3962004814
 H         -3.6195628122        3.8505527321       -2.8005000223
 H         -1.3527231999        1.8818306325       -3.3448349103
 H         -1.8818164261        2.4617246706       -1.7631114544
 H         -3.5535219942        0.7756382226       -3.6740719723
 H         -2.6676520162        0.1707416006       -2.2761636051
 H         -5.0347365743        2.0838033396       -2.2215168949
 H         -4.0342251092        1.7086834278       -0.8190800632
 H         -5.6621048633       -0.2892871285       -2.4498614353
 H         -4.5524390403       -0.7204450970       -1.1642484598
 H         -7.2321061957        0.6424231228       -0.9816587256
 H         -6.0211372501        1.0644303665        0.2179399471
 H         -7.7184612142       -0.9980742916        0.5935454332
 H         -6.4447150579       -1.8616717224       -0.2701259451
 H         -6.0342160813       -2.0161353296        2.1241031189
 H         -6.1497047685       -0.2404129127        2.3003004689
 H         -2.7053742935       -3.5223577394       -0.8444825095
 H         -2.1274887704       -5.2870863157       -2.4306174882
 H          0.2110793370       -5.5455554579       -3.2122658364
 H          1.9709004582       -4.0968376665       -2.2733477030
 H          0.1674089890       -3.0583224244        1.7823901654
 H          1.1469876043       -3.0793329436        4.0417306582
 H          3.4762904590       -2.4215329503        4.4134694960
 H          4.9027942602       -1.7096223595        2.5239997297
 H          5.9024986384       -1.0061369119        0.0468521920
 H          6.2206542079       -0.5869026951       -2.3699185876
 H          4.3743615937       -0.8877291902       -3.9479821855
 H          2.1669395349       -1.6903792321       -3.1804008367
 H         -3.1601498987        2.7182146583        1.3974415730
 H         -3.1084761789        5.0878482703        0.8185346683
 H         -1.0635092018        6.0939825524       -0.1572566762
 H          0.9769763579        4.7230611071       -0.3688748250
 H          0.3132413876        1.6581330170        2.9070615144
 H          1.8309715253        0.8740337378        4.6868847411
 H          4.2241577737        0.5863170345        4.2643576024
 H          5.1762666555        1.0336692004        2.0246650561
 H          5.5679672410        1.7049099289       -0.6354859413
 H          5.2836567330        2.4328302846       -2.9789575726
 H          3.0798874399        3.0629225684       -3.8389847871
 H          1.0905451243        3.0431855704       -2.3666013321
  97
       -148.20568528
 C         -3.2079636065       -0.3837815831        2.1775809397
 C         -4.2094101130       -1.5290264815        2.0982968782
 C         -4.9857817484       -1.5486056812        0.7819142715
 C         -5.9215944444       -0.3475027298        0.6295364166
 C         -7.0340509658       -0.5919861426       -0.3916521862
 C         -6.5257819815       -0.6298005900       -1.8330750233
 C         -6.2091676952        0.7675516381       -2.3765565493
 C         -4.9442193408        0.7795220295       -3.2368617559
 N         -3.7697601264        0.5852339228       -2.4208239159
 C         -3.0717959784       -0.6199516431       -2.3502515794
 O         -3.3465220416       -1.5958624556       -3.0377575070
 C         -2.0104598817       -0.3892457561       -1.3811268208
 C         -0.9332973728       -1.1204666811       -0.8133676439
 C         -0.7373146470       -2.5068644758       -0.7270839185
 C         -1.7653731172       -3.3987472863       -1.1306008483
 C         -1.7343606878       -4.7218007908       -0.7857071493
 C         -0.6712756289       -5.2410163277       -0.0396108528
 C          0.3920350726       -4.4206982685        0.2851718044
 C          0.4024981617       -3.0827991381       -0.0836695175
 N          1.5697662364       -2.3460595201        0.1241464385
 C          2.3329185958       -2.3838609521        1.2718732644
 C          1.9720700645       -2.7991058088        2.5456816548
 C          2.9254501601       -2.7169647743        3.5440751221
 C          4.2073496008       -2.2419064315        3.2822474912
 C          4.5646934119       -1.8073614357        2.0173992648
 C          3.6180977190       -1.8584548391        1.0075527368
 C          3.6231327632       -1.4877465473       -0.3828614231
 C          4.5963556572       -0.9896419295       -1.2331828396
 C          4.2713783660       -0.7776451068       -2.5610071303
 C          2.9959154513       -1.0627619371       -3.0416875139
 C          2.0147056844       -1.5779569897       -2.2169954123
 C          2.3359278187       -1.7896654979       -0.8840510489
 S          0.0747754020        0.0040568551        0.1083062392
 C         -1.0563130077        1.3420794149       -0.0911228108
 C         -0.9170364495        2.5181714138        0.6858510999
 C         -2.0499037331        3.3092040336        0.9734317670
 C         -2.0006780494        4.3003039452        1.9197578238
 C         -0.8175070452        4.5597838694        2.6125297179
 C          0.3267578108        3.8543346817        2.2961817487
 C          0.3058107247        2.8638898982        1.3214647278
 N          1.5142711579        2.2926010707        0.9189331970
 C          2.5320718199        1.9139390622        1.7662508425
 C          2.4817777608        1.6468724179        3.1275835039
 C          3.6538866089        1.2686784426        3.7531320577
 C          4.8485609050        1.1573734478        3.0456633332
 C          4.8963558486        1.3907548171        1.6828182006
 C          3.7297144759        1.7571265286        1.0316886522
 C          3.4072218154        2.0630091028       -0.3364543375
 C          4.1592599320        2.1359419159       -1.4979057341
 C          3.5273936286        2.4925648844       -2.6757163246
 C          2.1684475750        2.7898016968       -2.6961788933
 C          1.4031547188        2.7450879152       -1.5452390968
 C          2.0292749707        2.3731913419       -0.3654519238
 C         -2.0872756795        0.9426401258       -0.9525611779
 C         -3.2378826013        1.5722833449       -1.6130302323
 O         -3.6761018783        2.7106633895       -1.5436088660
 H         -2.4663978801       -0.4920833029        1.3968591042
 H         -3.7054459280        0.5735453093        2.0577930430
 H         -2.6994101183       -0.3865369535        3.1400212577
 H         -3.6721345019       -2.4749048096        2.2030385623
 H         -4.9145816730       -1.4555854826        2.9292185330
 H         -4.2771092102       -1.5809312406       -0.0426172228
 H         -5.5805001947       -2.4637418113        0.7500723220
 H         -5.3473205659        0.5286163129        0.3377452109
 H         -6.3839987842       -0.1402195043        1.5970829746
 H         -7.5210288972       -1.5409332353       -0.1578784640
 H         -7.7868307378        0.1942915098       -0.3004071173
 H         -7.2764958843       -1.1041927398       -2.4676846197
 H         -5.6331216253       -1.2458699714       -1.8709057585
 H         -7.0421033010        1.1447256158       -2.9706284451
 H         -6.0492246384        1.4581859304       -1.5520126033
 H         -4.8502197421        1.7412032119       -3.7474134340
 H         -4.9637963588       -0.0312300124       -3.9653722061
 H         -2.5824239450       -3.0095634448       -1.7099717368
 H         -2.5415862869       -5.3715292767       -1.0880441935
 H         -0.6548674948       -6.2835764724        0.2354466180
 H          1.2572853546       -4.8267515956        0.7879858375
 H          0.9786344085       -3.1692632286        2.7482546218
 H          2.6719806104       -3.0346923822        4.5441637836
 H          4.9312453075       -2.2107790041        4.0821807181
 H          5.5595834507       -1.4418370363        1.8193645278
 H          5.5896470951       -0.7836991771       -0.8653097841
 H          5.0170438195       -0.3967147830       -3.2419014539
 H          2.7716546724       -0.8877105412       -4.0829988440
 H          1.0344632109       -1.8137224565       -2.5989374043
 H         -2.9611056932        3.1118828476        0.4388134985
 H         -2.8856520826        4.8794526819        2.1346142805
 H         -0.7831281003        5.3367107102        3.3599904463
 H          1.2651628498        4.0976666348        2.7715800026
 H          1.5559067432        1.7296637074        3.6759381037
 H          3.6447891494        1.0592219099        4.8119192274
 H          5.7484840444        0.8810718275        3.5738843592
 H          5.8215646291        1.2931334193        1.1355961503
 H          5.2185623737        1.9336765331       -1.4785510529
 H          4.0942290896        2.5517857091       -3.5922963694
 H          1.7011775959        3.0719278191       -3.6277998129
 H          0.3550358743        2.9957331884       -1.5701919357
  97
       -148.20408671
 C         -2.6009213588       -4.6254846037        0.7071357049
 C         -3.9302416807       -3.9024882135        0.8942628984
 C         -3.7311751301       -2.3948925561        1.0225632978
 C         -5.0320902653       -1.6068425108        1.1818252533
 C         -5.9728218975       -1.7806324788       -0.0102462157
 C         -7.0974095525       -0.7467669604       -0.0657351658
 C         -6.6466336850        0.7016661669       -0.2635791365
 C         -5.7710388845        0.9333124370       -1.5019772161
 N         -4.3624454347        0.8011983414       -1.2100505320
 C         -3.5526382227       -0.1869853118       -1.7606032064
 O         -3.9523454169       -0.9634421447       -2.6207996321
 C         -2.2431070709        0.0006298574       -1.1472655060
 C         -0.9864015911       -0.6648759285       -1.1158463372
 C         -0.5966176886       -1.9081328429       -1.6447636285
 C         -1.4607666914       -2.6100148949       -2.5259081339
 C         -1.0592349946       -3.7385680942       -3.1867273503
 C          0.2287250650       -4.2499224804       -3.0050477202
 C          1.0786663114       -3.6251542562       -2.1138574119
 C          0.6844490251       -2.4991379315       -1.4030575588
 N          1.5731425927       -2.0100508110       -0.4404103987
 C          1.3638893961       -2.0101056791        0.9286213249
 C          0.1871165247       -2.2061303483        1.6349897773
 C          0.2494160504       -2.1481091491        3.0148078938
 C          1.4502524021       -1.9079024192        3.6781398992
 C          2.6303266576       -1.7372907914        2.9761100772
 C          2.5921930150       -1.7923952162        1.5916312979
 C          3.5967405119       -1.6863814653        0.5671292251
 C          4.9726395118       -1.5279792152        0.5855048540
 C          5.6468880741       -1.4619131027       -0.6209695721
 C          4.9637234291       -1.5333338384       -1.8325251249
 C          3.5944682808       -1.7162887433       -1.8746673666
 C          2.9196074125       -1.8197434394       -0.6663138792
 S          0.1483314077        0.3506460139       -0.2284576498
 C         -1.0676001522        1.5389028625        0.2151560530
 C         -0.7454828585        2.6044033275        1.0933087327
 C         -1.7759729394        3.2916989465        1.7739435368
 C         -1.5055636465        4.2087089539        2.7562674306
 C         -0.1876334194        4.5014267951        3.1064875136
 C          0.8437907423        3.8877496547        2.4247705885
 C          0.5945895816        2.9681029424        1.4118127485
 N          1.6917242148        2.4715758615        0.7050878038
 C          2.8695194351        2.0535236481        1.2906902342
 C          3.1278200724        1.7512461139        2.6199566405
 C          4.4174773531        1.3851006610        2.9573779446
 C          5.4238586059        1.3107519938        1.9982475446
 C          5.1569123604        1.5563774177        0.6631298580
 C          3.8692852109        1.9175743666        0.3015280696
 C          3.2506285988        2.2655776663       -0.9497134508
 C          3.7112408768        2.3271824336       -2.2558630225
 C          2.8453080863        2.7618615968       -3.2429814850
 C          1.5433440502        3.1489905248       -2.9350482579
 C          1.0611302011        3.0893149182       -1.6410121225
 C          1.9162887159        2.6238793800       -0.6525430710
 C         -2.2968014441        1.1571978069       -0.3526171671
 C         -3.6709944955        1.6767799657       -0.3976484386
 O         -4.1790491418        2.6577010083        0.1257857845
 H         -2.7607433238       -5.6948558274        0.5893473026
 H         -2.0946763287       -4.2556056072       -0.1819505535
 H         -1.9528416680       -4.4715266082        1.5677618711
 H         -4.5624742834       -4.1082245361        0.0322838869
 H         -4.4350565060       -4.2843695116        1.7842308074
 H         -3.0907591775       -2.1921076541        1.8842028845
 H         -3.2175820054       -2.0434349282        0.1288827180
 H         -4.7718826250       -0.5545774826        1.2847904392
 H         -5.5417365446       -1.9150164639        2.0979209981
 H         -5.4001960822       -1.7316680080       -0.9312444152
 H         -6.4323320405       -2.7692717322        0.0380850896
 H         -7.6799007019       -0.7960905098        0.8575603048
 H         -7.7630264827       -1.0164057101       -0.8893144883
 H         -7.5398088833        1.3215258677       -0.3562441458
 H         -6.1014162064        1.0501098171        0.6097871941
 H         -5.9452645315        1.9431102680       -1.8843923745
 H         -5.9973114666        0.2044689603       -2.2798884384
 H         -2.4486984700       -2.2194450901       -2.6929678016
 H         -1.7443799355       -4.2369560309       -3.8554515595
 H          0.5440614158       -5.1418197174       -3.5226103960
 H          2.0569758220       -4.0389944308       -1.9178591159
 H         -0.7441137887       -2.3872720561        1.1257752159
 H         -0.6529564542       -2.2899027709        3.5917718192
 H          1.4569694470       -1.8629300122        4.7568230615
 H          3.5625597590       -1.5666412083        3.4916719864
 H          5.5031492538       -1.4608307153        1.5221190371
 H          6.7203849031       -1.3473450638       -0.6267484189
 H          5.5153839562       -1.4564824080       -2.7573657249
 H          3.0656862933       -1.7800838687       -2.8133197807
 H         -2.7950351017        3.0822709647        1.5039462773
 H         -2.3199117195        4.7054960349        3.2607862088
 H          0.0275643811        5.2264710751        3.8755993361
 H          1.8683834646        4.1510696037        2.6411892112
 H          2.3492042555        1.8033665771        3.3650299194
 H          4.6504891876        1.1637229816        3.9882698903
 H          6.4261690833        1.0496389589        2.3032636793
 H          5.9328782030        1.4756466486       -0.0820460473
 H          4.7258608448        2.0453253101       -2.4920292217
 H          3.1820330117        2.8135486537       -4.2672519993
 H          0.8955658509        3.5027385659       -3.7232058337
 H          0.0516391703        3.3903790492       -1.4098056890
