  85
       -138.71099673
 C         -8.7082436069        0.2266597217        1.8995088583
 O         -7.4800370611       -0.3606004348        2.2489598378
 C         -6.3651684563       -0.0052564706        1.5532619355
 C         -5.1756760577       -0.6218637652        1.9902544429
 C         -3.9679708800       -0.3687848883        1.3818369222
 C         -3.9391886792        0.5157567917        0.3100589498
 C         -5.1273697997        1.1673966397       -0.1165499927
 C         -6.3443180099        0.8979082034        0.5005665973
 C         -4.7499035278        2.0468572472       -1.1783760628
 C         -5.4521688594        2.9337906784       -1.9862919861
 C         -4.7678330406        3.6230522235       -2.9682656918
 C         -3.4009754395        3.4280129695       -3.1638848607
 C         -2.6793792265        2.5564101839       -2.3670111348
 C         -3.3506200106        1.8823184210       -1.3597480904
 N         -2.8758193231        0.9562784184       -0.4468975773
 C         -1.5512750956        0.5564163100       -0.3098482566
 C         -0.5151546177        1.5166858914       -0.2795913873
 C          0.7884210928        1.1400946326       -0.1167161601
 N          1.8021461710        2.1082488467       -0.0685675259
 C          2.0682430589        3.0383039655       -1.0503927703
 C          1.4634961436        3.2105672489       -2.2858648496
 C          1.9344034022        4.2229932882       -3.1012391412
 C          2.9869641460        5.0426038931       -2.7015852102
 C          3.6102739535        4.8598538828       -1.4805402768
 C          3.1562891190        3.8489618832       -0.6459125480
 C          3.5575104054        3.3685423668        0.6473837444
 C          4.5439971275        3.7664812152        1.5379956114
 C          4.6519317783        3.0881886186        2.7459795969
 O          5.5672984671        3.3697380763        3.7116132586
 C          6.5035209737        4.3924464605        3.4769320076
 C          3.7693613505        2.0366835740        3.0558800699
 C          2.7889558497        1.6334858426        2.1819087202
 C          2.6927996620        2.2932672657        0.9606251645
 C          1.1566360568       -0.2494723795       -0.0171543913
 C          2.4716320424       -0.6400366483        0.1277365649
 N          3.5784785691       -0.9685887360        0.2529456878
 C          0.0837079036       -1.2102965716       -0.0754843505
 N          0.4037933724       -2.5728004468        0.0179159235
 C         -0.0596304807       -3.4434776431        0.9808942530
 C         -0.9007331925       -3.2004154141        2.0557800694
 C         -1.2028137944       -4.2584226050        2.8931810800
 C         -0.6764688108       -5.5286837836        2.6723626918
 C          0.1814889962       -5.7720031965        1.6151267071
 C          0.4999017515       -4.7256215301        0.7617888344
 C          1.3435146232       -4.6050780480       -0.3951499135
 C          2.1324500790       -5.5123727936       -1.0873357982
 C          2.8191830295       -5.0647565511       -2.2094390804
 O          3.6250676670       -5.8402520704       -2.9832210235
 C          3.8182841150       -7.1852328574       -2.6212727906
 C          2.6990049255       -3.7283840746       -2.6342073320
 C          1.9214772628       -2.8208610547       -1.9565345204
 C          1.2520181811       -3.2579450356       -0.8176402183
 C         -1.2184278771       -0.8120042080       -0.1937157477
 H         -9.4430779759       -0.1948337027        2.5836028644
 H         -8.9918747193       -0.0158987919        0.8701874653
 H         -8.6827299924        1.3144025163        2.0219477966
 H         -5.2424060339       -1.2981626462        2.8267219220
 H         -3.0677243014       -0.8366504580        1.7459470194
 H         -7.2359747522        1.3962548558        0.1562160561
 H         -6.5138353073        3.0743779590       -1.8492035628
 H         -5.2976178776        4.3157846318       -3.6051671393
 H         -2.8965343948        3.9631104553       -3.9542439386
 H         -1.6268708540        2.3989650367       -2.5409002514
 H         -0.7641613388        2.5663465844       -0.3260898627
 H          0.6605203416        2.5644634386       -2.6060882275
 H          1.4795152270        4.3791513231       -4.0679703946
 H          3.3252417670        5.8261927346       -3.3629011188
 H          4.4367294876        5.4873907113       -1.1830251190
 H          5.1975225898        4.5840795130        1.2800804965
 H          6.0142956491        5.3637606814        3.3492027714
 H          7.1205513180        4.1775409661        2.5987506729
 H          7.1360702524        4.4227144889        4.3626971030
 H          3.8898819865        1.5521384727        4.0111417218
 H          2.1194183832        0.8281792673        2.4386912756
 H         -1.2952128673       -2.2129658906        2.2408118722
 H         -1.8575811897       -4.0958002292        3.7362112503
 H         -0.9373966299       -6.3317588990        3.3452111289
 H          0.6002064918       -6.7546094645        1.4583299476
 H          2.1958879985       -6.5332435674       -0.7469068270
 H          4.5026267385       -7.5950642534       -3.3624535435
 H          2.8789792412       -7.7474970901       -2.6472059104
 H          4.2672532072       -7.2725662344       -1.6268024135
 H          3.2436165626       -3.4370562866       -3.5175862713
 H          1.8380182058       -1.8020843980       -2.2998781827
 H         -1.9995101128       -1.5546946591       -0.2588433083
