  94
       -127.74582267
 C         -2.3707711141       -1.3944573181       -5.8130975192
 C         -2.2587058395       -1.2654911718       -4.3250010736
 C         -1.9640366566       -0.0434479618       -3.7299678155
 C         -1.8830892895        0.0859388807       -2.3594163709
 C         -2.1042966706       -1.0176279079       -1.5286458939
 N         -1.9974055453       -0.8880225667       -0.1378736262
 C         -2.6680999566        0.1234281027        0.5379791430
 C         -3.6083083485        0.9510515615       -0.0848309910
 C         -4.2255056546        1.9653720038        0.6199631012
 C         -3.9471799923        2.1897509983        1.9618897844
 C         -4.6098743178        3.2937447840        2.7269720046
 C         -3.0417586498        1.3378665838        2.5895602363
 C         -2.4186119075        0.3209786940        1.9016488709
 C         -1.6945770206       -2.0671419871        0.6176405431
 C         -2.8131076392       -2.7804515924        1.0390528338
 C         -2.7106991075       -3.9624357001        1.7437764900
 C         -1.4376912402       -4.4334598507        2.0411096892
 C         -0.3282486377       -3.7136666812        1.6553943802
 C         -0.3920411032       -2.5106503828        0.9370087703
 C          0.8920484118       -1.7115659050        0.6855557590
 C          0.9187472290       -0.6348237389        1.7759954300
 C          0.6141098824       -1.0488311059        3.0668092973
 C          0.4334301043       -0.1752830418        4.1274992449
 C          0.4960421999        1.2054846011        3.8963691943
 C          0.8366747580        1.6521330719        2.6498245179
 C          1.1313029780        0.7623128215        1.5943741355
 N          1.7479300684        1.3539596473        0.4731203280
 C          1.1327477323        2.4276769853       -0.1339719857
 C          1.8723429964        3.4614921724       -0.7580594438
 C          1.2188858182        4.4911474385       -1.3892929752
 C         -0.1757597277        4.5634486697       -1.4242333024
 C         -0.8744032893        5.6975077846       -2.1030079307
 C         -0.9057150618        3.5617743819       -0.7606519131
 C         -0.2713241102        2.5226623471       -0.1314857573
 C          3.0391579413        0.9841784179        0.1609562071
 C          3.5316773253        1.0705108453       -1.1740858103
 C          4.8090221188        0.6663691384       -1.4647908674
 C          5.6656070435        0.1697001840       -0.4781580882
 C          7.0601312346       -0.2654113810       -0.7913700712
 C          5.1728397138        0.0782470759        0.8422957356
 C          3.8966371366        0.4606627436        1.1529803404
 C          2.1806872661       -2.5565975912        0.8453837296
 C          2.2819583901       -3.6859631577       -0.1788241897
 C          2.2029840226       -3.1412968856       -1.6005318468
 C          0.9240228395       -2.3258292932       -1.7548179343
 C          0.9465115875       -1.1772478405       -0.7504984351
 C         -2.3835807247       -2.2481234321       -2.1222405463
 C         -2.4619450055       -2.3626309205       -3.4960707241
 H         -1.7809652628       -0.6305954452       -6.3142492583
 H         -3.4100701748       -1.2754266055       -6.1223632240
 H         -2.0342763428       -2.3748070708       -6.1429381596
 H         -1.7844537193        0.8213075935       -4.3530736212
 H         -1.6263940670        1.0405697160       -1.9266772304
 H         -3.8709019314        0.7882430673       -1.1179691389
 H         -4.9492397514        2.5899923231        0.1148991835
 H         -5.1926672394        3.9310621614        2.0664841646
 H         -3.8652060679        3.9039282811        3.2362257156
 H         -5.2760806102        2.8822622652        3.4854674078
 H         -2.8175729254        1.4792637718        3.6365625010
 H         -1.7208252169       -0.3204546493        2.4127312617
 H         -3.7882852469       -2.3858796065        0.7883689094
 H         -3.5929991377       -4.5026790150        2.0498870554
 H         -1.3143214269       -5.3582378666        2.5861387011
 H          0.6297275505       -4.1102632847        1.9422543862
 H          0.4772331610       -2.1013224815        3.2569103332
 H          0.2099299837       -0.5552619544        5.1123557796
 H          0.3025504529        1.9034765301        4.6968297875
 H          0.9477423648        2.7099570233        2.4591659670
 H          2.9486262649        3.4545643218       -0.6964543151
 H          1.7963357041        5.2760701201       -1.8572020825
 H         -0.2816415316        6.0805954683       -2.9309230052
 H         -1.8465662445        5.3838431538       -2.4775004894
 H         -1.0369481562        6.5174668615       -1.4005413864
 H         -1.9845991854        3.6102338193       -0.7511830499
 H         -0.8432657821        1.7611422263        0.3728929101
 H          2.8711511622        1.4093672822       -1.9562253863
 H          5.1618762471        0.7231429096       -2.4852744303
 H          7.2918385684       -0.1049684854       -1.8416161864
 H          7.1926843833       -1.3247192442       -0.5643488053
 H          7.7794828859        0.2894852500       -0.1873173064
 H          5.8253117401       -0.2975827829        1.6167780936
 H          3.5380988258        0.4018638788        2.1691220884
 H          3.0249178762       -1.8805204958        0.6985468507
 H          2.2691197217       -2.9513199090        1.8571266202
 H          3.2271214155       -4.2160574823       -0.0333232559
 H          1.4706579795       -4.3986922737       -0.0389596794
 H          3.0667565202       -2.5031068952       -1.7975799304
 H          2.2212015715       -3.9657303092       -2.3171388838
 H          0.8514262276       -1.9232136038       -2.7674984184
 H          0.0613816264       -2.9698075485       -1.5879452690
 H          1.8905870159       -0.6627976986       -0.9041682781
 H          0.1452313926       -0.4720597163       -0.9429422038
 H         -2.5512930900       -3.1154032116       -1.5031136177
 H         -2.6889446013       -3.3240044982       -3.9342493097
