94
 energy: -127.887775813498 gnorm: 0.000047855315 xtb: 6.7.1 (edcfbbe)
C           -3.59123584777057        5.20801477416571        2.28358043718464
C           -3.30349285353871        3.90179763414453        1.60600935738932
C           -4.29392246625943        3.21618943856184        0.91356704140110
C           -4.02583103402518        2.02357000206273        0.27028299175465
C           -2.74914511056599        1.46332973651890        0.31478570446962
N           -2.44180456450157        0.24332245989129       -0.32083948857825
C           -3.50527115105841       -0.63100571249623       -0.59475940331562
C           -3.67104271126404       -1.24064498896270       -1.83628112013541
C           -4.70448267782290       -2.13562718032496       -2.04601522049372
C           -5.60546471612529       -2.44883694079784       -1.03810031138919
C           -6.73943826324473       -3.40038722141325       -1.27631119385738
C           -5.43766612042101       -1.83659940281268        0.20036294808749
C           -4.40668424541304       -0.94907031766871        0.42460728160436
C           -1.36062578184633        0.28139926579146       -1.26032567995080
C           -1.47350162178301        1.24112645951346       -2.26642755709975
C           -0.54085108043115        1.35412351160532       -3.27638553262154
C            0.52427333921307        0.47474512800111       -3.29176080754886
C            0.65576844839521       -0.46551108031125       -2.28646733549525
C           -0.25221741890736       -0.58497318458087       -1.23688454716304
C            0.00312498359823       -1.59308410592332       -0.10746971371831
C            0.31342832847004       -0.73862426984621        1.12680811404377
C           -0.52874383800054       -0.76392090052105        2.23698225865780
C           -0.34017756833231        0.03653465814165        3.34844890840792
C            0.71257134819267        0.93082922036616        3.38056212093795
C            1.56597490399769        0.98024580583123        2.29795019266741
C            1.39820215655450        0.15729730181475        1.18353704452385
N            2.39649277198086        0.29680209995967        0.16421289753641
C            2.59815773754438        1.59296080670880       -0.33952486884393
C            1.50107249396567        2.37667542953124       -0.68986247889850
C            1.67000121018628        3.65283916772604       -1.18734751971567
C            2.93576228008789        4.19758137078791       -1.36177249448390
C            3.11929908373563        5.57166840894371       -1.93320179241895
C            4.02918576450255        3.41908419657009       -1.00273641834690
C            3.87056512632306        2.14586058165194       -0.49204323915022
C            3.51213915883595       -0.55794863643506        0.23283143808444
C            3.89287287624151       -1.19436227524217        1.41194027512166
C            4.98187103028233       -2.04751287799335        1.42755938595358
C            5.72425565419354       -2.29225392328354        0.28066605456746
C            6.91520056189797       -3.20208103263028        0.31156781530640
C            5.34619731146659       -1.64785541186262       -0.89335267695536
C            4.26120440939811       -0.79731353872869       -0.92282705902426
C           -1.23784764955944       -2.51533062949110       -0.00599400648674
C           -0.96435054023934       -3.92386805390123        0.54316158167271
C            0.20431724524287       -3.93575532051559        1.51682016094084
C            1.47047589776866       -3.46888703399514        0.79588698576368
C            1.16707820322172       -2.55763499331488       -0.39846334102875
C           -1.75379308953395        2.15190428271452        1.00305736272697
C           -2.02839515674835        3.35013719572988        1.63109356696237
H           -4.64953069650677        5.29976219096817        2.51672267740545
H           -3.31420627702838        6.03746751415164        1.63121249106904
H           -3.01649730557337        5.29961005988622        3.20293503992301
H           -5.29316584635976        3.62654254944221        0.86438238165839
H           -4.81340374063081        1.52463018633941       -0.27644272890442
H           -2.98855983881520       -1.01314636714500       -2.64249810762299
H           -4.81158695205396       -2.59428665844508       -3.01931858847328
H           -6.93080524876525       -4.00287511255193       -0.39048191189314
H           -6.52226233022630       -4.06081039906694       -2.11254895243325
H           -7.65093934224004       -2.84736622609666       -1.50840088798977
H           -6.12218380289956       -2.06629441370992        1.00506991098748
H           -4.28539836559327       -0.49095382439424        1.39604088560671
H           -2.33013612765744        1.90153718256226       -2.24438728740725
H           -0.65422456988804        2.10589745434350       -4.04301898468247
H            1.26062681230984        0.52187617447959       -4.08039243537163
H            1.50502057229341       -1.12460186125068       -2.33216971070645
H           -1.37662708032810       -1.42730715260450        2.24960801136499
H           -1.02558231139493       -0.03325002129108        4.18011306986741
H            0.87178218542546        1.57536424425396        4.23214747536564
H            2.40109823252426        1.66837475367572        2.29823757953755
H            0.50782641786129        1.97902020601513       -0.57554265796186
H            0.79533883537707        4.23282038822140       -1.44683603623607
H            3.22718881669916        5.51438244927556       -3.01749408814022
H            2.25904681876772        6.20000610600052       -1.71334559152083
H            4.01418820946720        6.04234106049263       -1.53139251738444
H            5.02761919584623        3.82071676702384       -1.10942823115997
H            4.74421948700010        1.58275884266670       -0.19741686351337
H            3.34190512932588       -1.01068170435193        2.32319661605779
H            5.25950434091444       -2.52833855033091        2.35526116925433
H            6.77503948355238       -3.99826171637595        1.03947378269918
H            7.80768246835666       -2.64139252785569        0.59375913038837
H            7.09056249222702       -3.64345293730365       -0.66693754403075
H            5.90782966644878       -1.82018633586840       -1.80077171761312
H            3.97768466480740       -0.30609869001340       -1.84262803605906
H           -2.02109202885905       -2.04767319112652        0.57964025445084
H           -1.63476757624703       -2.62469263115246       -1.01780857280816
H           -1.86863126649085       -4.29531009365630        1.03034550942135
H           -0.73779905436252       -4.60772677766205       -0.27768924961836
H           -0.01207883714830       -3.27641882441966        2.35727845673796
H            0.34764024275894       -4.94137354766568        1.91756200202182
H            2.11731012563545       -2.94093676155666        1.49781515988994
H            2.03231183707742       -4.32990843372842        0.42632298944075
H            2.08295537133701       -2.03120549048190       -0.64294470279429
H            0.88786743418830       -3.16519865968239       -1.26183423412449
H           -0.76228797937196        1.73660923557440        1.05673183690490
H           -1.23398707965529        3.86108064070461        2.15674508937773
