94
 energy: -127.897379973164 gnorm: 0.000045047208 xtb: 6.7.1 (edcfbbe)
C           -1.36437402552548        5.37709980177554       -1.95627626716944
C           -1.65940176089251        4.00371783267166       -1.43265008792784
C           -2.49957408775110        3.82634323021318       -0.33799155182467
C           -2.79341912535099        2.56746455062752        0.14169385764777
C           -2.26562097276273        1.43396831484871       -0.47904335615355
N           -2.58079700251237        0.15519463914922        0.00094657933947
C           -3.93005247327742       -0.17843406954734        0.20982471861731
C           -4.98071099785412        0.59254294365030       -0.28769803059551
C           -6.29327775101915        0.24265473792416       -0.03578993218822
C           -6.61355106015168       -0.89028314692768        0.70091686609968
C           -8.03886369459506       -1.25244541621196        0.99265900485696
C           -5.56554716094412       -1.67450954915064        1.16830937963692
C           -4.25102984604803       -1.33144975950408        0.92752176491925
C           -1.71536445285839       -0.93606438935021       -0.32790844429757
C           -2.15852640764380       -1.74222840420389       -1.37712662814407
C           -1.46545825182179       -2.85963850621037       -1.78865820209173
C           -0.28418796106689       -3.17253431149844       -1.14596683043597
C            0.16985601425651       -2.37019202519518       -0.11689958414333
C           -0.51614504799308       -1.24639536943037        0.33965871582596
C            0.03350843611400       -0.46383466439562        1.53534898361815
C            0.57380638772085        0.89413128294957        1.05497760390181
C           -0.06769198493875        2.06847508184321        1.44670954926482
C            0.38725699989261        3.32975579708186        1.11235250121654
C            1.52355519415322        3.46979156256443        0.34088039752628
C            2.18684235085547        2.32949006616411       -0.05640186726159
C            1.74572896528508        1.05375078738611        0.29553842102245
N            2.61294115169477       -0.01184163696170       -0.10864464529610
C            2.34065253872901       -0.70234031747990       -1.29501802088086
C            1.52956517382560       -0.14838546806307       -2.28019127616379
C            1.24601156141163       -0.85197311698444       -3.43485337415938
C            1.77832056577376       -2.11456428198121       -3.65721663094119
C            1.46238699729623       -2.87827875644063       -4.90786509928775
C            2.60155538471958       -2.65820763415893       -2.67696522145498
C            2.87419144134867       -1.97437464294200       -1.51072516656467
C            3.93539597178150        0.09944103720403        0.35108786410295
C            5.03682823522534       -0.21179712011461       -0.44560636199362
C            6.32068803597530       -0.11368961060803        0.05564881720132
C            6.56056146095029        0.31120718888845        1.35565655804604
C            7.95564984662378        0.43510436026950        1.89119612497167
C            5.46298252779217        0.65370906687384        2.13696631976386
C            4.17598847371023        0.55397998338291        1.64982995165393
C           -1.08206499237531       -0.30334041521828        2.59351712766588
C           -1.46643822815872       -1.63408816644255        3.23753103066496
C           -0.29000336922261       -2.21502515798924        4.00717162700501
C            0.84747783821377       -2.44573057106559        3.02372820554095
C            1.20075584478565       -1.15455281665442        2.28552308388764
C           -1.43466653105340        1.60587979936691       -1.58039298635930
C           -1.13029647211822        2.87327852975503       -2.03923732094984
H           -2.17942166977340        5.71719447764748       -2.59706429280062
H           -0.44890862154546        5.37969646426256       -2.54311889865767
H           -1.26326796713701        6.08897070612962       -1.13965611494308
H           -2.92500001069842        4.69178885214271        0.15090709579773
H           -3.43917288423433        2.45234325401343        1.00063304364624
H           -4.77258674235718        1.46493380124119       -0.88942862676286
H           -7.08526772710053        0.86061246451459       -0.43610907516001
H           -8.32582745150512       -0.88141489287429        1.97782232615909
H           -8.17134410989024       -2.33255410449952        0.99055306738926
H           -8.70922861188287       -0.81255378791610        0.25767824023602
H           -5.78055552850765       -2.57196209064128        1.73142521565631
H           -3.45921008935435       -1.96769420199921        1.28774993981070
H           -3.08355936280314       -1.47070547584441       -1.86788572126066
H           -1.84179669761936       -3.46806193520508       -2.59737699721418
H            0.28911655709475       -4.03893108942416       -1.43873015006616
H            1.09825488301519       -2.64836322309650        0.34744649063020
H           -0.95553698946914        2.01517687984287        2.05072522217914
H           -0.15013579524956        4.19819092846086        1.46114549932117
H            1.89361738385416        4.44436569569102        0.06061413130607
H            3.09128740977026        2.40662727183739       -0.64507507573200
H            1.13711900362496        0.84639963989732       -2.13617309992180
H            0.60989266754212       -0.40238486261687       -4.18533041174177
H            1.25254354666161       -2.20107285981665       -5.73296536685669
H            2.28924071931466       -3.52862124447177       -5.18526303668204
H            0.58097170935624       -3.50156066394563       -4.75179533214511
H            3.03112239361311       -3.63913470105143       -2.82670611974680
H            3.50442553601978       -2.42381516842469       -0.75659912672805
H            4.89155217879880       -0.51997665240256       -1.47045957528657
H            7.15365646273643       -0.36336063283982       -0.58706991233362
H            7.99572159346208        0.13473893703273        2.93648230994057
H            8.29100415054025        1.47146702825961        1.82767450087830
H            8.64696803755860       -0.18041433626591        1.32024406208873
H            5.61778024652307        1.00411673395120        3.14795817262923
H            3.34474295395805        0.84109375763958        2.27505953440113
H           -0.72092504295338        0.35570106868532        3.38648098221645
H           -1.97108585681989        0.14057186689709        2.15151902177734
H           -2.31781833144480       -1.47351448454142        3.90327969891616
H           -1.76675025257542       -2.34943940582798        2.46916899506139
H            0.02293908749969       -1.51808406126471        4.78857439262022
H           -0.57299073369937       -3.15458236431319        4.48711017479097
H            1.73970655423168       -2.79757311164795        3.54847071466428
H            0.54520181403044       -3.22372805844681        2.32155544141263
H            1.54576827770040       -0.43442226827361        3.03327033724499
H            2.03566302024968       -1.34092896254056        1.61506036880016
H           -1.04279051888339        0.73373203710068       -2.08081891496682
H           -0.48094052445641        2.98309606304385       -2.89722847023408
