94
 energy: -127.784406721828 gnorm: 0.000075281675 xtb: 6.7.1 (edcfbbe)
C           -2.39869361284351       -1.44028414627403       -5.81830260921860
C           -2.28039113660616       -1.30279948660714       -4.33116841995268
C           -1.97596779207309       -0.07826041998060       -3.74569242538741
C           -1.88781638520333        0.05812856421865       -2.37592180217882
C           -2.11025870967325       -1.03725985437377       -1.53634736676104
N           -1.99516038078030       -0.89231094856493       -0.14423032264794
C           -2.68409343659687        0.11884118783441        0.52033399544392
C           -3.65415270881699        0.90863740277614       -0.10449012170113
C           -4.29739010175897        1.91260973915567        0.59242619108232
C           -4.01558103376936        2.16441616844162        1.92893780053538
C           -4.70476275024787        3.25877336761147        2.68490315306008
C           -3.07393706389718        1.35351618827942        2.55788295230693
C           -2.42287890038972        0.34928357420677        1.87616881676182
C           -1.69408169659107       -2.06340964759554        0.62705212075346
C           -2.81306480852935       -2.76446387410317        1.06725237158988
C           -2.71390368472892       -3.93670208607938        1.78917049948832
C           -1.44145600200292       -4.41225555360012        2.08377926556419
C           -0.33096222751366       -3.70541890095939        1.67930401785604
C           -0.38997750223772       -2.50928587469948        0.94631192032528
C            0.89741849023887       -1.71838974130428        0.68626427705346
C            0.93741211729820       -0.63845791882466        1.77404354050044
C            0.64142515778661       -1.04438343416518        3.06909769477237
C            0.46067122524510       -0.16758673695797        4.12699802406533
C            0.51261226806187        1.21462992227912        3.88721291505954
C            0.84325146079921        1.65655204009513        2.63780969899461
C            1.14446886268286        0.76357774891286        1.58363738888230
N            1.76751562235453        1.35335393155857        0.46560504404078
C            1.16147736679656        2.44206255622628       -0.13154943503490
C            1.90859351870843        3.49542922757521       -0.70718268140740
C            1.26537409545786        4.54630655416805       -1.31441934745061
C           -0.12893888237625        4.61718538601874       -1.37433852541622
C           -0.81829163948722        5.77393077786979       -2.02386210701838
C           -0.86761243620075        3.58981611908991       -0.76443050213605
C           -0.24263798514936        2.53128039321790       -0.15703602566948
C            3.06101983064922        0.98334400353742        0.14956111629591
C            3.55170490358108        1.07831120045176       -1.18286427753085
C            4.83041001747206        0.68035370816064       -1.47875609461245
C            5.68929480622923        0.17793028572611       -0.49617207690937
C            7.08491859135743       -0.25176477375040       -0.81388487916049
C            5.19829483090871        0.07809946884445        0.82218591009176
C            3.92088672283906        0.45596309846624        1.13755227450234
C            2.18434439645214       -2.56915111873148        0.83534638915943
C            2.28023074852968       -3.70062628052507       -0.18746279308077
C            2.18542677539938       -3.16262532646406       -1.61060977718206
C            0.91526026517711       -2.33175069798683       -1.75571467859166
C            0.94641987919121       -1.18452229477529       -0.74996501811976
C           -2.40148459489270       -2.26931962224842       -2.12012499944888
C           -2.48759795358147       -2.39224877785947       -3.49342892995986
H           -1.79800512207002       -0.68909566990082       -6.32592702428385
H           -3.43745090385496       -1.30572953143211       -6.12381941604807
H           -2.07971300302776       -2.42862238641411       -6.14211783313072
H           -1.79450079777429        0.78327438725115       -4.37267653945192
H           -1.62833745608047        1.01515415641633       -1.94726506613403
H           -3.92133650327146        0.72214312480262       -1.13374114552768
H           -5.04495404853927        2.50549351610130        0.08357929608901
H           -5.36901342511160        3.82341415401559        2.03535381436256
H           -3.97204582430080        3.94078858595981        3.11529997823878
H           -5.29086183508611        2.84261450113466        3.50436894442110
H           -2.84205780898124        1.51474211959588        3.60072286112568
H           -1.69479417275086       -0.26187027471913        2.38519266351007
H           -3.78876739490037       -2.36832895701155        0.81600449856376
H           -3.59867497213410       -4.46556737634064        2.10882524491065
H           -1.31867595823630       -5.33030185256486        2.64049359235322
H            0.62802196279120       -4.10583955799498        1.96348524526534
H            0.51019278806470       -2.09786525489979        3.26608275727916
H            0.24348773204291       -0.54549312271137        5.11415023642985
H            0.31709837379396        1.91564369251475        4.68493638599072
H            0.94830720131858        2.71515385906933        2.44242158685331
H            2.98503786880128        3.48678635551453       -0.62834218777568
H            1.85176369090208        5.34722188883670       -1.74281314158526
H           -0.19491393033418        6.21329369934367       -2.79971945244699
H           -1.76574343169110        5.46394221020509       -2.46024774925154
H           -1.03083168315425        6.54905214272249       -1.28440000649627
H           -1.94724533253217        3.63031143221007       -0.77954757209311
H           -0.81968239282404        1.74668944885589        0.30776510090431
H            2.89017774835527        1.42416403295412       -1.96292472198019
H            5.17965543622021        0.74579915557649       -2.50002194694539
H            7.30662278653542       -0.11081175648907       -1.86896946615419
H            7.22779243693245       -1.30448022930096       -0.56500196718800
H            7.80401977908263        0.32192279231150       -0.22712236373426
H            5.85008017088784       -0.30135143296023        1.59600406136498
H            3.56450411399378        0.39210666724081        2.15537413845564
H            3.02835115621320       -1.89147807707167        0.68306338564710
H            2.28232902485328       -2.96103527650735        1.84858485011890
H            3.22973682112033       -4.22422167688240       -0.04794114557900
H            1.47511764109386       -4.42087728493523       -0.03420819374240
H            3.05542797894647       -2.53738787429275       -1.82740593335739
H            2.18065068344342       -3.99140133418258       -2.32237827972942
H            0.84128060191298       -1.92610934120736       -2.76729941328993
H            0.04425362559034       -2.96675294574677       -1.58619870853415
H            1.89006641591504       -0.66768682880896       -0.90522735366397
H            0.14371831221908       -0.47784595560196       -0.93429506522161
H           -2.57198544129454       -3.13231588422819       -1.49344916994548
H           -2.72325662993890       -3.35648536027418       -3.92134447701805
