74
 energy: -115.184912874003 gnorm: 0.000039606095 xtb: 6.7.1 (edcfbbe)
N           10.50001781771634       -1.08845834395085       -0.69088600484881
C            9.38465794646002       -0.86672957480484       -0.54350722927194
C            8.01039126502499       -0.59297346123411       -0.36177976917229
C            7.16558616232237       -0.49541552379122       -1.46855350258360
C            5.82533198953990       -0.22447185147076       -1.28482667848048
C            5.30392461880269       -0.05116197521452       -0.00378780300363
C            3.86829784161680        0.23882555406701        0.18654204291437
C            3.03751347307742       -0.71997653385729        0.78417385245220
C            3.52847187271068       -1.99265000299979        1.17866035453013
C            2.71909427673120       -2.90670026606354        1.77940160078415
C            1.36695213437552       -2.60113921817500        2.03030857298438
C            0.85184042233793       -1.40104488660237        1.64823767863593
C            1.65305164872017       -0.42941877749538        0.99193094140061
C            1.12757697050639        0.80013689667684        0.56527360155111
C           -0.30104205289346        1.09790741414154        0.78663083884638
C           -0.67576873450548        2.12110517309018        1.65660341325376
C           -2.00759459222951        2.39771840836920        1.91253935094974
C           -2.97912032307184        1.63274807644772        1.28776211275523
C           -2.60385464839442        0.60843985078102        0.40614497782341
C           -1.28096850793911        0.33654687747484        0.14783499662266
C           -3.81991105358797       -0.10940008387407       -0.12450751988027
C           -3.79764508169965       -1.58546075590481        0.19348910857024
C           -3.69837507666487       -2.19121910631762        1.42653949863468
C           -3.68164873442613       -3.57851026558473        1.48106708733198
C           -3.76296165410526       -4.33545345216656        0.32197417437515
C           -3.86124759422300       -3.72848609522368       -0.91992565020578
C           -3.87669877991425       -2.34490989148162       -0.98245275327273
C           -3.95979101168278       -1.43442785360056       -2.11388379743423
C           -4.06113287620239       -1.67366790872842       -3.47432297086065
C           -4.12436713310078       -0.58982787077010       -4.33553658065267
C           -4.08649946785288        0.70886643393010       -3.85075556194669
C           -3.98541945961586        0.95661853028110       -2.48825214633300
C           -3.92313495971429       -0.11865438495802       -1.62970026479412
C           -4.94077627993179        0.64115719873908        0.55251391123617
C           -6.29753779598275        0.43079624732112        0.44370183068384
C           -7.15316344464072        1.25178570676769        1.16616551533592
C           -6.65411006537890        2.25929057381849        1.97810591631611
C           -5.28972212392280        2.47332986227578        2.09028678237383
C           -4.42997777077703        1.65847794874498        1.37229574277374
C            1.95428304275964        1.74630145686303       -0.05814754571128
C            1.44360932254767        2.97775789927735       -0.54662659080467
C            2.25944241573162        3.90268425932410       -1.12142536853275
C            3.64155166809111        3.65542390357274       -1.23903022984887
C            4.16642694442362        2.47526699789167       -0.81098555082820
C            3.34624168586682        1.47108925591548       -0.23191257929427
C            6.15444976847621       -0.15346865592214        1.09576022907974
C            7.49733256139398       -0.41956830981043        0.92464243509561
H            7.56832106152313       -0.63292272827295       -2.46138811184997
H            5.16614230727313       -0.15101774131990       -2.13756488902292
H            4.56492503134994       -2.22953376919302        0.98844784617571
H            3.10814358352235       -3.87075243227769        2.07228785351094
H            0.74161815473629       -3.32950855433751        2.52503618058107
H           -0.18524938399690       -1.17253408496031        1.84220482451418
H            0.09674095398929        2.69478212876304        2.14879070555944
H           -2.28014465049248        3.18924545915816        2.59467145946077
H           -0.99784576947430       -0.45181970298028       -0.53512470427428
H           -3.63604699825357       -1.60021723989748        2.32916914124376
H           -3.60480926468250       -4.07388343187055        2.43784181116703
H           -3.74874336734334       -5.41361404634378        0.38916581024533
H           -3.92271746065659       -4.32288136008034       -1.81945294482577
H           -4.09158512490841       -2.68310176589928       -3.85693951413810
H           -4.20490890120375       -0.75786543726181       -5.39969255217842
H           -4.13740803215891        1.53783088008848       -4.54127166489986
H           -3.95799837691847        1.96822756069394       -2.10967092691418
H           -6.68541899373862       -0.35424298695611       -0.18911988857189
H           -8.22062644654534        1.10387573949486        1.09471329139824
H           -7.33960036022284        2.88534326858684        2.53059743906916
H           -4.90586213102285        3.25901535848780        2.72409247507770
H            0.38443260052546        3.16723401946359       -0.45748462407606
H            1.85547863767825        4.83451714559751       -1.48874663658429
H            4.27928232821614        4.40887843400374       -1.67735386938775
H            5.22589420274982        2.28813962600430       -0.90569037618527
H            5.75242537468135       -0.01526491038557        2.08892536534777
H            8.15663117841606       -0.49474964298517        1.77697750662281
