74
 energy: -115.184032469757 gnorm: 0.000109920515 xtb: 6.7.1 (edcfbbe)
N           10.70994269980472       -0.00087052458623       -1.37590415263732
C            9.59734399467527       -0.00069872880630       -1.09887236441622
C            8.22585968719799       -0.00041342093231       -0.75747442130879
C            7.25723663806028       -0.00052212816133       -1.76220878913309
C            5.91964527529988       -0.00027629350546       -1.42263774157478
C            5.52818284254061        0.00009259662664       -0.08614644893900
C            4.09096606246121        0.00025466916175        0.27024124505908
C            3.41767107908162       -1.21601128250753        0.43585429073854
C            4.07435723961484       -2.46391863505937        0.27097728884183
C            3.40482338382300       -3.63710755248420        0.43448020640620
C            2.03584473303239       -3.63602977579605        0.77197602607042
C            1.37036022184264       -2.46146292798064        0.94118541532161
C            2.03111859416722       -1.21511413076159        0.78253866031564
C            1.35888699401829        0.00051843739843        0.95680170427793
C           -0.07214425789744        0.00057140500506        1.33800753651790
C           -0.42915348588349        0.00051118975241        2.68411163474794
C           -1.75745055478536        0.00022838478133        3.07431796176273
C           -2.73804887347610       -0.00000390502983        2.09604921824897
C           -2.37827334013592        0.00018264744364        0.74033394515908
C           -1.05811247505618        0.00046729195780        0.35251247327641
C           -3.60642279652832       -0.00014843847562       -0.13559369727322
C           -3.66740261202521       -1.17163690696554       -1.08551724357215
C           -3.64031965765095       -2.51588104175630       -0.78645227031558
C           -3.71276393913116       -3.42662481480424       -1.83202792598443
C           -3.81100974807449       -2.99323718853140       -3.14564881914865
C           -3.83743458055838       -1.64147426866272       -3.44961432776308
C           -3.76405095711742       -0.72699809616516       -2.41196096912327
C           -3.76474952244941        0.72759745137053       -2.41162966124514
C           -3.83909332987102        1.64247827777945       -3.44885836023637
C           -3.81401509311509        2.99412685654409       -3.14427095133488
C           -3.71614251008899        3.42700772666934       -1.83045508761209
C           -3.64273224831016        2.51585547123867       -0.78530276791949
C           -3.66847758623203        1.17172353458343       -1.08498805049928
C           -4.71605813945984       -0.00075722920408        0.88829406885767
C           -6.07655115111486       -0.00137000183372        0.67367796667106
C           -6.91909535841751       -0.00182031556772        1.77736918454352
C           -6.40370923319520       -0.00163641010077        3.06488091108902
C           -5.03553366754848       -0.00101278128759        3.28415103128831
C           -4.18897029263577       -0.00057668136793        2.18791874458352
C            2.03138780735266        1.21601503937752        0.78268605684334
C            1.37089774328395        2.46248768388111        0.94146514521578
C            2.03663260353952        3.63692696319829        0.77235503757880
C            3.40560483900808        3.63774226683101        0.43482375594461
C            4.07488795789291        2.46442661159110        0.27120182893445
C            3.41794043700277        1.21664599797322        0.43599280418032
C            6.50024474160878        0.00024201656591        0.91095330867990
C            7.84106816090620       -0.00001099304014        0.58401723444076
H            7.56248362834775       -0.00081058821561       -2.79835526141006
H            5.16395474549021       -0.00040643510415       -2.19448545024431
H            5.12311117067535       -2.46472941094148        0.01081456941548
H            3.91657513258105       -4.57956369511444        0.30609651440567
H            1.52175854192044       -4.57792138099786        0.89434544203207
H            0.32122054088408       -2.45614143796310        1.19827176595352
H            0.35267340778260        0.00062644700363        3.43019213449625
H           -2.02027026194159        0.00012949301268        4.12167302331501
H           -0.78275199713860        0.00053866944336       -0.69246392987122
H           -3.56614891961172       -2.85266582492684        0.23758925463545
H           -3.69339415248829       -4.48543912736654       -1.61956921923317
H           -3.86765890812764       -3.72052469287291       -3.94251751977633
H           -3.91377799385034       -1.30926207552229       -4.47436145109387
H           -3.91516917855219        1.31066260595025       -4.47375382381970
H           -3.87144940057461        3.72172461720619       -3.94080017052911
H           -3.69784234950868        4.48574292757184       -1.61750743523974
H           -3.56886618850439        2.85224285694925        0.23889134729713
H           -6.47727244278691       -0.00150668827004       -0.32963338718001
H           -7.98918804450368       -0.00232025768631        1.63119957074885
H           -7.07920701144143       -0.00199045587227        3.90797400249983
H           -4.63879002203012       -0.00087804598951        4.28862520233123
H            0.32175827927365        2.45735082288877        1.19856048400139
H            1.52275288369327        4.57891910642971        0.89481724305202
H            3.91755072219266        4.58010145542560        0.30650115409129
H            5.12363247409115        2.46503238367168        0.01099666609895
H            6.19477602235283        0.00051031660258        1.94706907284169
H            8.59635099631412        0.00008736833596        1.35622256562717
