74
 energy: -115.123164526098 gnorm: 0.000037222786 xtb: 6.7.1 (edcfbbe)
N           10.48172598092408       -1.27295996106211       -0.48314148900047
C            9.36724021904367       -1.01719014404666       -0.38132732063794
C            7.99893865920607       -0.70319224194256       -0.25617194069474
C            7.29476033784551       -0.17815091517863       -1.34456266481701
C            5.96123105628268        0.13524506800172       -1.21493526619234
C            5.28189055573837       -0.07861700210460       -0.00727694203381
C            3.86907837185371        0.24792153549216        0.12530275337213
C            2.94702825155493       -0.74951993666172        0.57847008003668
C            3.34643198702631       -2.06945829503214        0.80232289129915
C            2.47036335262748       -3.01639704903456        1.32675988303871
C            1.18233395414408       -2.64928365725262        1.65071360868556
C            0.74267452453387       -1.35527231421203        1.38415098083266
C            1.57835110688174       -0.40729342456242        0.78757486308665
C            1.10667528812797        0.89264690252327        0.41443587720003
C           -0.29906319669838        1.22595019132658        0.59085811361005
C           -0.67991919323220        2.36737369765812        1.31187957622337
C           -2.00673350665109        2.66960715947645        1.54541791296669
C           -2.98692319477710        1.82200355968178        1.04782013048375
C           -2.61373352467287        0.68804275152892        0.30745752836193
C           -1.29702261106610        0.38493491064330        0.07404507964185
C           -3.83149088772086       -0.10621240573161       -0.09785651449786
C           -3.76322645460787       -1.52322049964340        0.42052036516514
C           -3.62694171003796       -1.94936825614687        1.72330015218864
C           -3.55008217114448       -3.31419475628536        1.96685715608585
C           -3.60776003066032       -4.22570038167684        0.92332560220778
C           -3.74390194541309       -3.79953349719300       -0.38827549091339
C           -3.82017105106742       -2.43951147591089       -0.63913657039105
C           -3.95031977325580       -1.69702929722966       -1.88322772837896
C           -4.05996927311381       -2.12523261616297       -3.19579761590306
C           -4.17660145716951       -1.17359054538923       -4.19637013597061
C           -4.18284106198840        0.18004039072988       -3.89525172680090
C           -4.07276623947798        0.61698567000548       -2.58183656616574
C           -3.95766368993318       -0.32656706726862       -1.58501816157939
C           -4.94747088118642        0.71916479444860        0.49297392376719
C           -6.30320033137096        0.48427363223927        0.44196666179978
C           -7.15497371253767        1.39071838132224        1.06009264389665
C           -6.65274119832037        2.50643101300501        1.71402685336275
C           -5.28974954108335        2.74635246054036        1.76862094321601
C           -4.43265477826286        1.84654491543172        1.15385655423627
C            2.01484356497440        1.86197332786073       -0.11768889341319
C            1.57153177962526        3.09825112005400       -0.59368100420824
C            2.46618865671419        4.07703820548256       -1.01877888920102
C            3.82184129938508        3.83466786236465       -0.96842514307088
C            4.28624519908383        2.58498448572915       -0.56577731581816
C            3.40695269249402        1.56400130432369       -0.19678641165365
C            5.99847242126737       -0.61502312133900        1.07197052702706
C            7.33622847090595       -0.91535202351263        0.95715089052935
H            7.80527748577292       -0.02606156408325       -2.28444591467093
H            5.41439608226316        0.51843771376959       -2.06417306846089
H            4.35383765093689       -2.36992341036298        0.55807132108282
H            2.81300657551702       -4.02707487707379        1.48958894192209
H            0.50136866554615       -3.35942932981603        2.09526996621029
H           -0.26768605957288       -1.08644978829132        1.65073320464162
H            0.09247970108727        2.99486219376077        1.73290337349650
H           -2.27366399705001        3.54221707399583        2.12301890206123
H           -1.02481661839643       -0.47624028339019       -0.51917304619901
H           -3.58067357903899       -1.23807423143852        2.53565323786991
H           -3.44306382805633       -3.66971715252290        2.98123062501395
H           -3.54473817155351       -5.28286455886171        1.13689182086184
H           -3.78623504632112       -4.51372277678289       -1.19715262238618
H           -4.05647515662968       -3.17821698597428       -3.43544137711151
H           -4.26478292184978       -1.48964277027453       -5.22564836608317
H           -4.27560034709207        0.90340387442917       -4.69191451296300
H           -4.07950757612776        1.67149001699352       -2.34651987429434
H           -6.69413052914649       -0.38436947850245       -0.06769391555377
H           -8.22175656682818        1.22502885314394        1.03085059845689
H           -7.33551867423487        3.19708004137892        2.18716898317386
H           -4.90314874625838        3.61594820413354        2.27912422050479
H            0.51242344034198        3.29994585795248       -0.63916742755676
H            2.09045603943953        5.02632000861626       -1.36999068476372
H            4.52872684499894        4.59930411866112       -1.25310898768231
H            5.35064569491827        2.40976521540116       -0.53456718372190
H            5.49434323152534       -0.75944141122187        2.01648240627555
H            7.88401075394258       -1.31153431586691        1.79982190066781
