58
 energy: -98.243214713522 gnorm: 0.000039335459 xtb: 6.7.1 (edcfbbe)
C            6.41413971828054       -3.58324108121753       -0.84467662534751
C            5.56899077814292       -4.64508827748464       -1.13715450652563
N            4.24784097677361       -4.54818547955889       -1.12832227541325
C            3.70994454471431       -3.38177817413201       -0.82949485755961
C            4.45914739702104       -2.24377666127651       -0.52383180554846
C            3.80346131065203       -0.97231402200868       -0.20718527512810
N            2.47758564593113       -0.95088848802332       -0.20017348539914
C            1.86161718112514        0.20001351967984        0.07180490023015
C            0.39809620779139        0.17923413384523        0.06311280107952
C           -0.26404741511436       -0.85607903614331       -0.60122867370461
C           -1.64066847816747       -0.91008615887941       -0.63206627997090
C           -2.39373262152726        0.07189142661618        0.01047744544574
N           -3.80108007285466        0.02264255898752       -0.01367921234167
C           -4.53817297869036        1.05509254483116       -0.60226438733461
C           -3.93196970020483        2.12183924102263       -1.25532380507032
C           -4.69177986954033        3.12795403687220       -1.83272016107573
C           -6.07038295017254        3.08021739930071       -1.77885605691389
C           -6.69214599978410        2.00471916440866       -1.16153629052235
C           -5.93826129185512        0.99790697669977       -0.58660438484826
O           -6.62792146893041       -0.05100481915005       -0.02593232513775
C           -5.88874550604241       -1.06582306445053        0.53588870594883
C           -6.59505555299804       -2.11168226281094        1.10145988974050
C           -5.92423199625217       -3.15681355920062        1.71941928605650
C           -4.54537062281203       -3.13513293795095        1.78274393024740
C           -3.83299962583808       -2.08940646012410        1.21531567192953
C           -4.48776239817558       -1.05116739709176        0.56335656947740
C           -1.73997508654496        1.10294381617903        0.68328464747037
C           -0.36191581681458        1.15604686509773        0.70878636332849
C            2.60682966251004        1.35459215947320        0.33602805604057
C            3.99243670240889        1.23025140532437        0.32534495028851
C            4.87964487445923        2.36541434835986        0.59699701260466
C            6.15547659755737        2.43776305654147        0.03084087409145
N            6.97621120546134        3.44567747369506        0.26162221613994
C            6.53289356289642        4.40594057494684        1.05521442651009
N            5.35680623448637        4.44213696657811        1.65542831478685
C            4.53989678897081        3.42590978887953        1.43787817062810
N            4.58740795598184        0.07036361334755        0.05088973759671
C            5.84905274661701       -2.35997688838560       -0.53181525324752
H            7.48491711997273       -3.71283235803080       -0.86130653702140
H            5.96050468621639       -5.62201716230670       -1.38935206601209
H            2.62997660889697       -3.33705961721326       -0.82732611893183
H            0.32566274811360       -1.60622325457246       -1.10374240149489
H           -2.14340100420131       -1.70672910372173       -1.15970881987348
H           -2.85629521025955        2.16316629715871       -1.32114881404383
H           -4.19260654065421        3.94642021519874       -2.32842937866312
H           -6.66699933467061        3.86210039121585       -2.22163033070630
H           -7.76704201059555        1.92413903463606       -1.12015846960120
H           -7.67233900649058       -2.08508315394864        1.05229370547028
H           -6.48381264951046       -3.96932350705125        2.15527283596431
H           -4.00856581632502       -3.93003988619629        2.27731969678642
H           -2.75718147078705       -2.07850318278171        1.28875372713234
H           -2.32205671305618        1.85477844591548        1.19527682151640
H            0.11950902792019        1.94679846312041        1.26294412479079
H            2.13682416414275        2.30772879905346        0.50609070470543
H            6.50991706176563        1.65834494260738       -0.63030408936376
H            7.19950674687969        5.23929657896017        1.23549657996518
H            3.59699088155622        3.45840069418921        1.96936696110690
H            6.45523007162294       -1.49946993902956       -0.29273544026990
