58
 energy: -98.180584238809 gnorm: 0.000053505528 xtb: 6.7.1 (edcfbbe)
C            6.11875433405687       -3.76875769953310       -1.18607276263553
C            5.24058980696379       -4.83994912479152       -1.27552806330170
N            3.93810095146561       -4.73168312606232       -1.06049437774275
C            3.45430254395712       -3.54531894110445       -0.74743752899261
C            4.23900018997069       -2.39759181882802       -0.63274725505949
C            3.63526855363041       -1.10882645534710       -0.27663688656258
N            2.31436815695250       -1.04238150328363       -0.24943167733460
C            1.72851258732574        0.13964506729226        0.09706899964910
C            0.27643652808031        0.16160656418332        0.10164844408121
C           -0.42230197496081       -0.85702342524133       -0.56475710784834
C           -1.79748237819662       -0.87354854879389       -0.59721713308123
C           -2.52019881121105        0.12650810218110        0.05183415844505
N           -3.93900332273938        0.11340733796755        0.02713122209601
C           -4.63658505005935        1.10191719315656       -0.64954431908688
C           -3.99298604684795        2.11662581824170       -1.35804095641177
C           -4.72481262699675        3.08975089675849       -2.01201216579564
C           -6.11141479013935        3.06884245399746       -1.98191667670687
C           -6.76966915191504        2.05599617461436       -1.30661066700556
C           -6.04421301902544        1.07447900496843       -0.64897400655516
O           -6.74863804409484        0.08941396354720       -0.02038492193016
C           -6.04893070457408       -0.88533449525763        0.62975638584791
C           -6.77947495218226       -1.87982112938704        1.26172544911929
C           -6.12712965706100       -2.88310325204629        1.95676830050373
C           -4.74204514211665       -2.88149584840467        2.03234052130811
C           -4.00506619405099       -1.89503924230910        1.40468584801102
C           -4.64184152227841       -0.88939496622402        0.67736554828966
C           -1.84311367267489        1.13743561877343        0.73145389810083
C           -0.46591682231058        1.15529804162176        0.75408470519618
C            2.51271568881642        1.23854671736909        0.39588067097337
C            3.91126044032386        1.10731808783678        0.33379544165841
C            4.81385978615664        2.17317038951555        0.59778142263108
C            6.21639675771658        1.96518587821390        0.53239679151956
N            7.08925651032712        2.90694354706697        0.76018713974183
C            6.64041336842025        4.12167761885038        1.07029326323077
N            5.35496267500555        4.43993689794553        1.16623983703240
C            4.46539770590829        3.50395473723006        0.93954751005640
N            4.44302366925456       -0.10716775692438       -0.00529745978577
C            5.60751081857921       -2.52522913078792       -0.85974628365533
H            7.17315705514528       -3.90640353736819       -1.36882309699652
H            5.58876862558196       -5.83258772138092       -1.52991639515682
H            2.38873071263728       -3.48924154071909       -0.57112627984565
H            0.14845056673036       -1.62318477183119       -1.06531438660338
H           -2.32222203337800       -1.65432684022769       -1.12766427466744
H           -2.91576606575649        2.13309489398277       -1.39576801537353
H           -4.20628457836627        3.86734573275711       -2.55060921613604
H           -6.67979211270235        3.83150849880236       -2.48963456028699
H           -7.84612169150769        2.00235948949948       -1.27782135213953
H           -7.85512351217170       -1.84380604807605        1.19727351143584
H           -6.69924592863645       -3.65609106476305        2.44426821310762
H           -4.22856135178986       -3.65190713077967        2.58577321888951
H           -2.92951880030445       -1.89512968822802        1.47689212491726
H           -2.40532440185249        1.90081259817341        1.24904475178630
H            0.03672780154530        1.93504614526722        1.30467195270599
H            2.07125613976910        2.18878064250482        0.64560549166484
H            6.58922009728503        0.97981405794632        0.28371786288886
H            7.36823760868100        4.89618436165741        1.25576215202652
H            3.43373544464574        3.81883420567621        1.02929309665168
H            6.24072567391881       -1.65419231117997       -0.77892374721125
