  58
        -98.13543546
 C          6.0863308557       -3.8767508052        0.8433363086
 C          5.1865181918       -4.9122739747        1.0555931381
 N          3.8740182137       -4.7530931183        1.0055177614
 C          3.3982228612       -3.5529889179        0.7419588237
 C          4.2052898089       -2.4386160563        0.5122087470
 C          3.6179275687       -1.1271687428        0.2259021996
 N          2.3020352646       -1.0313824026        0.1968118401
 C          1.7249864157        0.1746405356       -0.0652227737
 C          0.2768125948        0.2048812108       -0.0772593658
 C         -0.4250860040       -0.9850100595        0.1815801104
 C         -1.7990333602       -1.0156642596        0.1938948722
 C         -2.5220232647        0.1491964808       -0.0557919964
 N         -3.9417273722        0.1301173532       -0.0353642149
 C         -4.6514181193       -0.4959072025       -1.0491645495
 C         -4.0179183789       -1.1050017391       -2.1293675017
 C         -4.7590706894       -1.7187221106       -3.1233264244
 C         -6.1421376408       -1.7311495012       -3.0621936722
 C         -6.7898446826       -1.1160753978       -2.0034001300
 C         -6.0561793276       -0.4991657819       -1.0046568948
 O         -6.7533107189        0.1052789474        0.0046748599
 C         -6.0387615597        0.7133189193        0.9993193516
 C         -6.7541468765        1.3102255249        2.0232374950
 C         -6.0872868428        1.9274949122        3.0687707055
 C         -4.7030937876        1.9366816168        3.0917768313
 C         -3.9802877825        1.3436211657        2.0721723580
 C         -4.6335518554        0.7336357872        1.0042628761
 C         -1.8456064541        1.3375169299       -0.3205962938
 C         -0.4692022687        1.3651824691       -0.3313064198
 C          2.5286940742        1.2792728550       -0.2972477637
 C          3.9214428332        1.1188270609       -0.2508728132
 C          4.8415500792        2.1826002562       -0.4651173154
 C          6.2388139391        1.9442095269       -0.4042442331
 N          7.1261313583        2.8792659917       -0.5882992579
 C          6.7083761287        4.1151172125       -0.8459387483
 N          5.4295778766        4.4583720156       -0.9295015066
 C          4.5207345741        3.5329167767       -0.7472483003
 N          4.4342751745       -0.1177758355        0.0176442861
 C          5.5855577695       -2.6178304153        0.5667494191
 H          7.1493794229       -4.0548868026        0.8947890826
 H          5.5270463685       -5.9155230701        1.2760867830
 H          2.3219005979       -3.4560128095        0.7080023664
 H          0.1455982317       -1.8783318689        0.3785660728
 H         -2.3274704378       -1.9351326684        0.4001206968
 H         -2.9409594611       -1.0896970531       -2.1864083425
 H         -4.2479461351       -2.1864685233       -3.9502044501
 H         -6.7191880137       -2.2106403599       -3.8366439480
 H         -7.8655212367       -1.0990014314       -1.9329362255
 H         -7.8309433746        1.2760978661        1.9826390173
 H         -6.6500713953        2.3918418392        3.8626963843
 H         -4.1765824953        2.4056764284        3.9082400965
 H         -2.9020940089        1.3443997442        2.0998372950
 H         -2.4118693554        2.2363074359       -0.5187859368
 H          0.0252380706        2.3002045546       -0.5416312026
 H          2.1064660189        2.2468198177       -0.5081943212
 H          6.5885222255        0.9415788906       -0.1952782297
 H          7.4514199790        4.8820960838       -0.9956103699
 H          3.4961089492        3.8705437104       -0.8276106015
 H          6.2349710594       -1.7728988611        0.3937421238
