  52
        -89.93142688
 N         -5.9403284884       -1.8343632750       -0.8030393640
 C         -4.9613627830       -1.2859154644       -0.5700166891
 C         -3.7414064153       -0.6319840839       -0.2856298192
 C         -2.5350850689       -1.2584805812       -0.5755677247
 C         -1.3227360902       -0.6345520841       -0.3063357264
 N         -0.1315498246       -1.2730167572       -0.6382982740
 C          0.2582065075       -2.5361418942       -0.2051129292
 C         -0.4588817506       -3.4826246050        0.5097249620
 C          0.1880883573       -4.6561277527        0.8530377747
 C          1.5175851283       -4.8838009126        0.5066963890
 C          2.2434150545       -3.9351298219       -0.1859651169
 C          1.6113416925       -2.7521505864       -0.5431911916
 C          2.0579927016       -1.5666301304       -1.2218964560
 N          3.2426592242       -1.2782727400       -1.7347863721
 C          3.3587127545       -0.1042829719       -2.3257706350
 C          2.3101189655        0.8006733283       -2.4837278649
 C          1.0607322708        0.5087708346       -1.9620346692
 C          0.9493873090       -0.6848768736       -1.2686116539
 C         -1.3189274555        0.6453107613        0.2984137956
 N         -0.1239242469        1.2754282114        0.6325644405
 C          0.2765678105        2.5355706854        0.2007980252
 C         -0.4310155069        3.4868867183       -0.5170710530
 C          0.2257071060        4.6556284863       -0.8581708587
 C          1.5554022137        4.8738686969       -0.5066023523
 C          2.2717195142        3.9203291185        0.1893187472
 C          1.6298434432        2.7419638327        0.5443221361
 C          2.0650774511        1.5535599769        1.2255121075
 N          3.2452771610        1.2570254888        1.7439865069
 C          3.3501609918        0.0825760766        2.3362135441
 C          2.2945310189       -0.8149367428        2.4895173403
 C          1.0497372576       -0.5145245240        1.9617794434
 C          0.9500610348        0.6797070329        1.2676044408
 C         -2.5273886120        1.2765500205        0.5678771793
 C         -3.7374434819        0.6560105083        0.2810341628
 C         -4.9537270069        1.3142147034        0.5722361662
 N         -5.9299728864        1.8654984138        0.8094190352
 H         -2.5390340821       -2.2283314490       -1.0493071647
 H         -1.4847317097       -3.3155806729        0.8038061397
 H         -0.3527185105       -5.4097148959        1.4055074774
 H          1.9838747683       -5.8138652022        0.7933338096
 H          3.2777703604       -4.0887804942       -0.4477166493
 H          4.3402076574        0.1205619293       -2.7187684075
 H          2.4696827493        1.7235601732       -3.0181888499
 H          0.2251152685        1.1792480937       -2.1012671876
 H         -1.4569513292        3.3270107045       -0.8148215380
 H         -0.3075305848        5.4130527688       -1.4127334657
 H          2.0292590013        5.8007366675       -0.7910848626
 H          3.3059665120        4.0668696726        0.4554630367
 H          4.3282429950       -0.1491501961        2.7337067836
 H          2.4450945243       -1.7386550471        3.0251125529
 H          0.2087208514       -1.1789636630        2.0973885543
 H         -2.5252573488        2.2466605398        1.0411943036
