  56
        -91.64118022
 O         -2.2749225745        3.1179504795       -2.9795665526
 C         -1.1722169022        3.0930124283       -2.4829728638
 O         -0.4755144441        4.2244690690       -2.2599727228
 C         -0.4669285863        1.8751442989       -2.0640902630
 C          0.7887192550        1.9209890427       -1.4491642386
 C          1.4039814706        0.7642195425       -1.0431901319
 C          0.7868129388       -0.4913841893       -1.2208956911
 C          1.3847559844       -1.6863683906       -0.7086367742
 C          0.5805592187       -2.8117948655       -0.3170249206
 C         -0.6762053820       -2.8069458714        0.2077830908
 C         -1.4484034797       -1.6788333919        0.6510194154
 C         -2.8840541050       -1.7689886919        0.5708024061
 C         -3.7126757914       -1.1179163744        1.5004700828
 C         -5.0840695781       -1.2351177229        1.4290268449
 C         -5.6739813745       -1.9983507186        0.4317624526
 C         -4.8725385654       -2.6560128103       -0.4904212166
 C         -3.5003267725       -2.5508654861       -0.4209045513
 C         -0.8113771080       -0.5218236063        1.2032093383
 C         -1.3849130149        0.7591768767        1.0688593113
 C         -0.7249430030        1.8802993370        1.5041021571
 C          0.5319857951        1.7705287279        2.1083831465
 C          1.2870890347        2.9489158288        2.5531830267
 O          2.3888835093        2.9167620802        3.0514063678
 O          0.6397868914        4.1131306249        2.3517366776
 C          1.0950563746        0.5034419553        2.2877558210
 C          0.4405887706       -0.6177283549        1.8455799437
 C          2.8171495028       -1.8169909920       -0.6183381716
 C          3.4027323343       -2.6436178379        0.3551759299
 C          4.7715265984       -2.7794369267        0.4400149511
 C          5.5994398709       -2.1101589706       -0.4499843653
 C          5.0394599656       -1.3059104729       -1.4321151387
 C          3.6717490239       -1.1576249177       -1.5179772458
 C         -0.4656202000       -0.5218902602       -1.8690287921
 C         -1.0760878431        0.6352879591       -2.2803964298
 H         -0.9988685573        4.9856665785       -2.5535884863
 H          1.2585187429        2.8770377989       -1.2796971099
 H          2.3470071087        0.8154955213       -0.5201687971
 H          1.0438591764       -3.7811348491       -0.4633858494
 H         -1.1646304194       -3.7693060883        0.3118188816
 H         -3.2621309671       -0.5527474952        2.3026999598
 H         -5.7022734306       -0.7335752942        2.1592761360
 H         -6.7485734239       -2.0845253086        0.3768699726
 H         -5.3258895999       -3.2509349528       -1.2697827223
 H         -2.8879114972       -3.0491356386       -1.1580315736
 H         -2.3285541795        0.8599041867        0.5540395842
 H         -1.1599462615        2.8575340405        1.3654626146
 H          1.1942982828        4.8456003159        2.6609214271
 H          2.0539034974        0.4318112084        2.7790679030
 H          0.8668657980       -1.5931179834        2.0216448046
 H          2.7695543945       -3.1527304552        1.0671573573
 H          5.2015124569       -3.4075200555        1.2065672421
 H          6.6711878189       -2.2180284296       -0.3813508464
 H          5.6777379179       -0.7956542151       -2.1385406735
 H          3.2441775585       -0.5598034703       -2.3091469157
 H         -0.9282046507       -1.4749766170       -2.0735325132
 H         -2.0349011051        0.6136161129       -2.7765367488
