  56
  -91.2765216277000       0.532089405005976      !
 O         -2.2749225745        3.1179504795       -2.9795665526
 C         -1.1722169022        3.0930124283       -2.4829728638
 O         -0.4755144441        4.2244690690       -2.2599727228
 C         -0.4669285863        1.8751442989       -2.0640902630
 C          0.7887192550        1.9209890427       -1.4491642386
 C          1.4039814706        0.7642195425       -1.0431901319
 C          0.7868129388       -0.4913841893       -1.2208956911
 C          1.3847559844       -1.6863683906       -0.7086367742
 C          0.5805592187       -2.8117948655       -0.3170249206
 C         -0.6762053820       -2.8069458714        0.2077830908
 C         -1.4484034797       -1.6788333919        0.6510194154
 C         -2.8840541050       -1.7689886919        0.5708024061
 C         -3.7126757914       -1.1179163744        1.5004700828
 C         -5.0840695781       -1.2351177229        1.4290268449
 C         -5.6739813745       -1.9983507186        0.4317624526
 C         -4.8725385654       -2.6560128103       -0.4904212166
 C         -3.5003267725       -2.5508654861       -0.4209045513
 C         -0.8113771080       -0.5218236063        1.2032093383
 C         -1.3849130149        0.7591768767        1.0688593113
 C         -0.7249430030        1.8802993370        1.5041021571
 C          0.5319857951        1.7705287279        2.1083831465
 C          1.2870890347        2.9489158288        2.5531830267
 O          2.3888835093        2.9167620802        3.0514063678
 O          0.6397868914        4.1131306249        2.3517366776
 C          1.0950563746        0.5034419553        2.2877558210
 C          0.4405887706       -0.6177283549        1.8455799437
 C          2.8171495028       -1.8169909920       -0.6183381716
 C          3.4027323343       -2.6436178379        0.3551759299
 C          4.7715265984       -2.7794369267        0.4400149511
 C          5.5994398709       -2.1101589706       -0.4499843653
 C          5.0394599656       -1.3059104729       -1.4321151387
 C          3.6717490239       -1.1576249177       -1.5179772458
 C         -0.4656202000       -0.5218902602       -1.8690287921
 C         -1.0760878431        0.6352879591       -2.2803964298
 H         -0.9988685573        4.9856665785       -2.5535884863
 H          1.2585187429        2.8770377989       -1.2796971099
 H          2.3470071087        0.8154955213       -0.5201687971
 H          1.0438591764       -3.7811348491       -0.4633858494
 H         -1.1646304194       -3.7693060883        0.3118188816
 H         -3.2621309671       -0.5527474952        2.3026999598
 H         -5.7022734306       -0.7335752942        2.1592761360
 H         -6.7485734239       -2.0845253086        0.3768699726
 H         -5.3258895999       -3.2509349528       -1.2697827223
 H         -2.8879114972       -3.0491356386       -1.1580315736
 H         -2.3285541795        0.8599041867        0.5540395842
 H         -1.1599462615        2.8575340405        1.3654626146
 H          1.1942982828        4.8456003159        2.6609214271
 H          2.0539034974        0.4318112084        2.7790679030
 H          0.8668657980       -1.5931179834        2.0216448046
 H          2.7695543945       -3.1527304552        1.0671573573
 H          5.2015124569       -3.4075200555        1.2065672421
 H          6.6711878189       -2.2180284296       -0.3813508464
 H          5.6777379179       -0.7956542151       -2.1385406735
 H          3.2441775585       -0.5598034703       -2.3091469157
 H         -0.9282046507       -1.4749766170       -2.0735325132
 H         -2.0349011051        0.6136161129       -2.7765367488
  56
  -91.2757959954000       0.246892044199245      !
 O         -2.1781989969        3.2114809901       -2.8571469849
 C         -1.0680557646        3.1531423504       -2.3802334439
 O         -0.3453831440        4.2652255410       -2.1424768590
 C         -0.3811971667        1.9126640542       -1.9993713964
 C          0.8845971122        1.9219062191       -1.4036727457
 C          1.4789634864        0.7461092520       -1.0229418162
 C          0.8288856823       -0.4922134503       -1.2049931678
 C          1.4048860109       -1.7033956722       -0.7065175016
 C          0.5875180494       -2.8138946495       -0.3038077236
 C         -0.6690966816       -2.8023093988        0.2225088919
 C         -1.4539221462       -1.6790745744        0.6543256952
 C         -2.8891163969       -1.8006505203        0.5855867484
 C         -3.7230725871       -1.1680712429        1.5229065507
 C         -5.0918837079       -1.3200134202        1.4673085546
 C         -5.6734775620       -2.1000563528        0.4781575115
 C         -4.8663577358       -2.7379526993       -0.4528071635
 C         -3.4963263834       -2.5981173907       -0.3988789500
 C         -0.8426711651       -0.5002137704        1.1872528153
 C         -1.4548919910        0.7619131355        1.0409532983
 C         -0.8271997097        1.9075167016        1.4586017370
 C          0.4359895648        1.8427474824        2.0562872977
 C          1.1570759741        3.0499540600        2.4784745636
 O          2.2676153227        3.0608905666        2.9576914163
 O          0.4662086148        4.1892948444        2.2783660239
 C          1.0378151346        0.5951493320        2.2472900309
 C          0.4153686414       -0.5509906213        1.8229117151
 C          2.8360576579       -1.8688682984       -0.6430248715
 C          3.6870821117       -1.2378429335       -1.5658856496
 C          5.0510106353       -1.4304207116       -1.5160124623
 C          5.6106199577       -2.2501999085       -0.5464796409
 C          4.7861636358       -2.8870238050        0.3698885852
 C          3.4205704050       -2.7072679035        0.3208096942
 C         -0.4306797461       -0.4867147830       -1.8396563175
 C         -1.0194781076        0.6897028918       -2.2277331974
 H         -0.8590580832        5.0432979883       -2.4074717801
 H          1.3783077607        2.8645803907       -1.2275775384
 H          2.4311287202        0.7685183400       -0.5145343264
 H          1.0429939631       -3.7882857948       -0.4415510810
 H         -1.1528410671       -3.7662591353        0.3352624668
 H         -3.2775076972       -0.5894304812        2.3184729988
 H         -5.7141844968       -0.8331797315        2.2039020564
 H         -6.7460547440       -2.2141070467        0.4361534903
 H         -5.3133250523       -3.3455754068       -1.2261493616
 H         -2.8796516289       -3.0828871241       -1.1416169904
 H         -2.4045788697        0.8280310728        0.5316577298
 H         -1.2923989641        2.8693055976        1.3103946733
 H          1.0011155220        4.9432062571        2.5700289674
 H          2.0015693335        0.5589195658        2.7328156225
 H          0.8740916933       -1.5107233577        2.0041021211
 H          3.2575991795       -0.6274382614       -2.3463822757
 H          5.6865704797       -0.9439826998       -2.2414546510
 H          6.6795595986       -2.3957771973       -0.5085342599
 H          5.2161260042       -3.5248680555        1.1284288131
 H          2.7906676779       -3.1913436532        1.0528788674
 H         -0.9173106201       -1.4266101156       -2.0496175890
 H         -1.9844038061        0.6967325353       -2.7122363313
  56
  -91.2756913790000       0.221018550794779      !
 O         -1.8786263697        3.4834187961       -2.7016180769
 C         -0.7702050454        3.3434181579       -2.2374604902
 O          0.0160209279        4.4029712177       -1.9628628574
 C         -0.1531634121        2.0529909217       -1.9089677059
 C          1.1180529743        1.9700165703       -1.3305092837
 C          1.6428470556        0.7510694029       -0.9871278490
 C          0.9148961388       -0.4413637737       -1.1874552830
 C          1.4281450949       -1.6928337636       -0.7266798383
 C          0.5764130027       -2.7885611125       -0.3555430562
 C         -0.6817604527       -2.7925947765        0.1702713282
 C         -1.4944795245       -1.7079656070        0.6372672688
 C         -2.9243963392       -1.9085786031        0.6445909441
 C         -3.7313669885       -1.3343737464        1.6412718986
 C         -5.0875496584       -1.5773039313        1.6805109219
 C         -5.6840340973       -2.3902061074        0.7272776530
 C         -4.9046916454       -2.9626680705       -0.2676034209
 C         -3.5461615946       -2.7322929027       -0.3081736925
 C         -0.9337874570       -0.4918196327        1.1421809807
 C         -1.6238018096        0.7289868935        0.9926625957
 C         -1.0528524865        1.9174378697        1.3686171090
 C          0.2262898184        1.9363051045        1.9350611142
 C          0.8935781393        3.1937350478        2.2939524478
 O          2.0024454284        3.2786491998        2.7699986056
 O          0.1534274435        4.2894423924        2.0349984833
 C          0.8987629295        0.7283994790        2.1443063754
 C          0.3361196278       -0.4602620784        1.7534955433
 C          2.8520333851       -1.9331707834       -0.6843820515
 C          3.4040046235       -2.8161915075        0.2580927618
 C          4.7556898649       -3.0861350798        0.2708958263
 C          5.5971484408       -2.4959254003       -0.6610139145
 C          5.0696036299       -1.6267679300       -1.6050639398
 C          3.7203979331       -1.3438379115       -1.6179756058
 C         -0.3489883774       -0.3432251878       -1.8064983815
 C         -0.8666722998        0.8764389353       -2.1602501813
 H         -0.4568953727        5.2182878999       -2.1888272373
 H          1.6713074459        2.8756239962       -1.1373606495
 H          2.6005811234        0.7032163019       -0.4909865667
 H          1.0170082955       -3.7661034395       -0.5207759192
 H         -1.1501669325       -3.7673464443        0.2534434111
 H         -3.2701274289       -0.7298658578        2.4081905764
 H         -5.6868591438       -1.1384330212        2.4647718161
 H         -6.7462717830       -2.5793532881        0.7618928477
 H         -5.3643296314       -3.5919709170       -1.0158176439
 H         -2.9542279545       -3.1657884246       -1.1011334614
 H         -2.5893423018        0.7289234757        0.5093336577
 H         -1.5757788344        2.8475730655        1.2112214494
 H          0.6566552726        5.0804991339        2.2809624024
 H          1.8715649023        0.7577218331        2.6117261658
 H          0.8524623646       -1.3891668287        1.9407824174
 H          2.7617451588       -3.2656207938        1.0016393865
 H          5.1610562121       -3.7596723898        1.0119350903
 H          6.6542340395       -2.7147339282       -0.6539929341
 H          5.7178309949       -1.1739659196       -2.3410233566
 H          3.3133439930       -0.6958463553       -2.3800258130
 H         -0.8972453726       -1.2463440342       -2.0267570113
 H         -1.8335739456        0.9554968095       -2.6341189986
