164
 energy: -240.075446197473 gnorm: 0.000054511637 xtb: 6.7.1 (edcfbbe)
C           -5.67378091573709       -5.33653220500439        2.73362288064754
C           -6.41364293959148       -4.90646144975212        1.50244321970767
C           -7.07857714179338       -5.84484893868587        0.72041188489390
C           -7.77933108628980       -5.44260138064572       -0.40223537960975
C           -7.81762319226589       -4.11168231989168       -0.76975105539634
C           -7.15640593925460       -3.15715262125320        0.00234051247152
N           -7.16831566647370       -1.81141671993343       -0.36367904322458
C           -8.26720575188142       -1.26279690688687       -1.03457788747546
C           -9.56940643133668       -1.58440403030417       -0.65453355546779
C          -10.63829888096530       -1.02274265249253       -1.32414576633289
C          -10.43104063586338       -0.14240078033952       -2.37294253856647
C           -9.13954798891245        0.18434518931759       -2.76797308112454
C           -8.89244068079324        1.09395682177156       -3.93449904309889
C           -8.06868621714843       -0.37748880716653       -2.09178215302326
C           -6.05346847292628       -0.99841456685786       -0.11943843191125
C           -6.24767416020141        0.33045105089632        0.23387968158361
C           -5.15206650177239        1.17097319754591        0.42009706634172
C           -3.83782987907149        0.66906082545316        0.32126056958641
C           -3.67207454368731       -0.69832269703956        0.01594778519423
C           -4.76958356597287       -1.51457083858080       -0.23922400107781
N           -2.40213051822469       -1.23223295791237       -0.04869810470764
C           -2.28535221999105       -2.64463595745109       -0.18966671203154
C           -1.96978913212139       -3.20867813191991       -1.42009034733028
C           -1.83389698116186       -4.57985147183103       -1.53489714388847
C           -2.01992134636585       -5.39273416289864       -0.42922230256627
C           -2.34557630223570       -4.83256595757541        0.79409626065506
C           -2.47663875415717       -3.46127653542408        0.91703342793774
C           -1.24373547046674       -0.47832449033141       -0.00015062113418
C           -0.02314314439750       -1.13000379869003       -0.13606600600407
C            1.17808954478705       -0.43304313944470       -0.19219507497407
C            1.17784826513426        0.98238354154559       -0.13915699437918
C           -0.05583131511682        1.58507668938868        0.09618260876056
C           -1.27639578821708        0.92254573861035        0.20926499736346
B           -2.63629897635824        1.57378948896926        0.53490108481917
C           -2.98128974664652        2.99443722423871        1.03252607892899
C           -2.05331118736831        3.94036201081116        1.48930744550010
C           -2.40584741915698        5.21900306535448        1.84924105025009
C           -3.73575337131037        5.62924080555391        1.75458618649833
C           -4.11818641827878        7.03727538120260        2.09649752509311
C           -4.68325934343483        4.71030947111371        1.35855831709299
C           -4.33772323177791        3.39017441358233        1.03644111575489
N           -5.35196658636682        2.50314215815315        0.71750415393565
C           -6.70376420836951        2.94539199981695        0.81138090215150
C           -7.29989718324148        3.08992613697918        2.05776237164204
C           -8.62215998718913        3.48663159497492        2.13806506110196
C           -9.34954268918843        3.72485031448423        0.98554696628994
C           -8.76574203753391        3.57868423191927       -0.26725617398990
C           -9.56910557292289        3.79902725073122       -1.51125277378763
C           -7.43450637931215        3.19324838142371       -0.34219881826839
B            2.53039503423991        1.71226272973220       -0.26087594633095
C            2.85606688312643        3.21167622245754       -0.43002290227481
C            1.92773853572693        4.20738819930911       -0.76200950255596
C            2.26685432109737        5.53435413737366       -0.87839914839893
C            3.58614735622089        5.93885744300183       -0.67512177113132
C            3.95834454091762        7.38606459921540       -0.78937829608568
C            4.53506369840802        4.98039062905072       -0.39126027764530
C            4.19830953569223        3.62447807877142       -0.27691328885580
N            5.21339274639351        2.71252235717499       -0.04241514106533
C            6.53022296349841        3.20516554160807        0.19128503730773
C            6.87403547590209        3.67859890160108        1.45040876831650
C            8.16077010561383        4.13221371810410        1.67817385799086
C            9.10117144264580        4.10319981749413        0.66349548260579
C            8.76957176938706        3.62910516898212       -0.60014353277505
C            9.79404513805632        3.56180999887919       -1.69003784095759
C            7.47334468015987        3.18810598267192       -0.82737394567914
C            5.04590305062481        1.34362527063470       -0.07650360395361
C            6.15161212535046        0.50357544603471        0.03748295830059
C            5.99555722753346       -0.87095839577470       -0.08646904404929
N            7.12503569645364       -1.69848573772342       -0.05078481985585
C            7.04807185806088       -2.97090454962447        0.51972231196510
C            7.76363335167061       -4.03730391743675       -0.02321346681448
C            7.66089019220378       -5.29415454785269        0.54032075285092
C            6.84311009304883       -5.51174830550171        1.63463820694965
C            6.12371912617455       -4.45931598839179        2.19032312441037
C            5.25844040871295       -4.68594964781099        3.39373304111047
C            6.24061238668909       -3.19718093436176        1.63453269633645
C            8.31893061093316       -1.25350972139311       -0.62770885750569
C            8.30191512751419       -0.51583046935546       -1.81140665617191
C            9.48676746613920       -0.07536660054053       -2.36515475154265
C           10.69810846097113       -0.36278585086637       -1.75874636608873
C           10.73393793548518       -1.10119595254110       -0.58196657117725
C           12.03733119615009       -1.39660732121786        0.09741019335318
C            9.54239241255209       -1.53740091479665       -0.02484712810015
C            4.73093157391168       -1.42354590028413       -0.24774614393301
C            3.61119030951055       -0.59776249392577       -0.23500257954547
C            3.74696196031987        0.80602897343648       -0.19049389044674
N            2.35226247111245       -1.15663151609514       -0.29912769896069
C            2.25240220404276       -2.57737371863194       -0.35318272898181
C            2.37944365519922       -3.32798512943681        0.80897921677642
C            2.25519260830993       -4.70398623713339        0.75838021091982
C            1.99862201421370       -5.33439630977250       -0.44753611717651
C            1.87537044399580       -4.58737545666490       -1.60674349330909
C            2.00521207830583       -3.21083236978291       -1.56395764918618
C           -6.46707861701595       -3.57142885002647        1.14272275599896
H           -5.10674292579118       -6.24519410167553        2.54075875788136
H           -4.99319123794674       -4.55845439096008        3.06964266825129
H           -6.37760970719328       -5.54758298408635        3.53930153139158
H           -7.04583256745351       -6.88938632034525        0.99355110156231
H           -8.29201674468380       -6.17584410124441       -1.00791495171400
H           -8.34969809025454       -3.80586883742699       -1.65827721367847
H           -9.73165833941760       -2.26804357215176        0.16548835314557
H          -11.64570740664785       -1.26908547784369       -1.02152675266300
H          -11.27668272104250        0.28744544848847       -2.89053496566225
H           -9.77557119511938        1.68416683310169       -4.16705723445904
H           -8.63824434365636        0.50404381628804       -4.81572870494637
H           -8.05956883080887        1.76379128958462       -3.73232657458351
H           -7.05890404498629       -0.13461952414990       -2.39021340298901
H           -7.25673273714619        0.69115350803289        0.35260519936508
H           -4.64068196289557       -2.54406194598358       -0.53435529647533
H           -1.82424968819959       -2.56455677010182       -2.27469183502589
H           -1.58361837080429       -5.01536119163365       -2.49076446835224
H           -1.91234281047115       -6.46294654116693       -0.52213358848283
H           -2.49219651994120       -5.46454863408793        1.65700844924242
H           -2.72420485370247       -3.01125625194191        1.86706250395875
H           -0.00784755061492       -2.20601556658909       -0.19478730921788
H           -0.06614080011276        2.65527209357332        0.20122129943943
H           -1.02006770934042        3.64715143945410        1.58399579889924
H           -1.65544555772891        5.91520775249074        2.19606867055502
H           -3.83811709839877        7.26683195351795        3.12422264480614
H           -3.59578402803574        7.73877832232006        1.44658506016694
H           -5.18901862716032        7.19034037445849        1.98478854994237
H           -5.71633498210455        5.02147118302901        1.30162090784116
H           -6.72242547847914        2.89420960463081        2.94882131832331
H           -9.08962694798384        3.60398492557589        3.10454686105052
H          -10.38467229518962        4.02573903715806        1.05672767761380
H          -10.32673716604345        4.56343274384809       -1.35431149857413
H          -10.07350113744523        2.87182716976762       -1.78425324681929
H           -8.93157252960167        4.09584080178566       -2.34023256163987
H           -6.95590857174829        3.06990703345073       -1.30294429683171
H            0.90742429409375        3.91836393807345       -0.95822005998956
H            1.51636736915250        6.26945033352764       -1.13256984654662
H            3.70287724596620        7.76661600309620       -1.77792037620379
H            3.40922461449431        7.97562371435795       -0.05565638340277
H            5.02353011613126        7.53048191263092       -0.62475135573554
H            5.56419354609715        5.28718187011728       -0.27168760604177
H            6.13206076357821        3.69128361940326        2.23454588805745
H            8.43320643324900        4.50534356222800        2.65440607992463
H           10.10593587345832        4.45199133247365        0.85341218105366
H           10.24770770957184        2.57001127393653       -1.70095674770598
H            9.33764001619165        3.73343198310974       -2.66215225869839
H           10.58086533105317        4.29553180621742       -1.53211349928698
H            7.18988569965483        2.81500005826248       -1.80094148561964
H            7.14091582181656        0.90017717957014        0.19835819942970
H            8.38843047395770       -3.87573316562777       -0.88907675754063
H            8.21552208728447       -6.11609680200799        0.11124129252770
H            6.76126416528144       -6.50065308585562        2.06143417319373
H            5.87270268896162       -4.72669055038662        4.29386860253652
H            4.72652196270296       -5.63164014094680        3.31118330402449
H            4.53644323428357       -3.88190130006776        3.51129829903364
H            5.69758561200846       -2.36828734743304        2.06518312684239
H            7.35858490189645       -0.30074345442104       -2.29024032562039
H            9.46703671028406        0.48650192551888       -3.28802309136737
H           11.62090437638487       -0.01800556522009       -2.20296071932657
H           12.26056550128156       -0.61867318222220        0.82853315071074
H           12.85214694787381       -1.42645774951709       -0.62230304504056
H           11.99328789422297       -2.34794264949045        0.62265195206533
H            9.55609914172865       -2.10660578414503        0.89390344066655
H            4.63362866896800       -2.49143238898505       -0.36285708434704
H            2.57069691816701       -2.82284889329422        1.74399506789962
H            2.35364449680190       -5.28484084559933        1.66300232470123
H            1.89548649696722       -6.40845561517021       -0.48407608575793
H            1.67823167069159       -5.07818622424798       -2.54820033221994
H            1.90673752492030       -2.61668036073931       -2.46037387268644
H           -5.96631101079555       -2.83172618127512        1.75045491318996
