164
 energy: -239.992679076686 gnorm: 0.000093739535 xtb: 6.7.1 (edcfbbe)
C           -5.64101428468266       -5.37449731336437        2.62038888956107
C           -6.38926256667157       -4.92896999754007        1.39976894932381
C           -7.05502790353229       -5.85810749019508        0.60710736336481
C           -7.76688721313851       -5.44083405668844       -0.50355565468131
C           -7.81706904611869       -4.10450018506634       -0.84750997246592
C           -7.15527274942991       -3.15848165717920       -0.06411901017661
N           -7.17376641336180       -1.80815615588884       -0.40892969688734
C           -8.27574677648443       -1.24625708437260       -1.06102669177480
C           -9.57646349191339       -1.58895666651531       -0.69185642749874
C          -10.64919022544874       -1.00955557070159       -1.33911136053393
C          -10.44868889310735       -0.08912133773101       -2.35470079256882
C           -9.15904644374429        0.26093540359371       -2.73749149200686
C           -8.92130317128754        1.21668540402657       -3.86862129369015
C           -8.08413934393251       -0.31854093347840       -2.08382252984500
C           -6.05972237556358       -0.99821576720135       -0.14941005922971
C           -6.25002955040851        0.32277528442293        0.25719405168833
C           -5.15573853104947        1.16437360909910        0.44539239770518
C           -3.83684417522567        0.67817319247312        0.31336784683437
C           -3.67532667469989       -0.68135027951987       -0.03184306683061
C           -4.77111239721891       -1.49695663104439       -0.30508828062517
N           -2.39873409411895       -1.20918490015895       -0.11791968271049
C           -2.28105040640577       -2.61620170419768       -0.29990295798378
C           -1.93614978166250       -3.14061628089052       -1.54040694244550
C           -1.80162861323928       -4.50747207988492       -1.69660814179121
C           -2.01609031301638       -5.35601135272643       -0.62277823858927
C           -2.37012099457262       -4.83480956275000        0.61022922422976
C           -2.50205197564416       -3.46833716695378        0.77486425884103
C           -1.24602835815735       -0.46304692295366       -0.03632485459143
C           -0.02210347739016       -1.11907893669490       -0.14475142178998
C            1.18349642194943       -0.42346024223904       -0.18834283154980
C            1.18641672509190        0.99951094557700       -0.15439823699081
C           -0.05306070056539        1.60689372949018        0.07543549208988
C           -1.27904739485803        0.94203415601745        0.19013933695811
B           -2.63902348201736        1.57994897427920        0.53450190914058
C           -2.98127421325572        2.98800847298072        1.05579857762411
C           -2.05332965904144        3.93637725594418        1.51387001289398
C           -2.41054566086350        5.21172071774280        1.88735700210066
C           -3.74147031696260        5.62158810471174        1.81132955649528
C           -4.12511462253151        7.02735850553412        2.16052508429450
C           -4.69231424127226        4.69654545403338        1.42141006184928
C           -4.34368462825944        3.38291541533983        1.08969920010431
N           -5.35905854527793        2.48804236841725        0.78584326074225
C           -6.70820621518626        2.91476393804506        0.94225587372233
C           -7.24084682032942        3.07279550943268        2.21620803203087
C           -8.56123692205615        3.45644849741998        2.35904548942830
C           -9.35110708646720        3.66919486453750        1.24263844090785
C           -8.83156988232546        3.50967814763861       -0.03648644205442
C           -9.69743883642774        3.69973547928540       -1.24280199076663
C           -7.50164832539075        3.13748174531824       -0.17512785855483
B            2.54133739236163        1.71928958054261       -0.28984674075007
C            2.87046753691809        3.21113963687734       -0.48620084440521
C            1.94523325061079        4.20914881798196       -0.82807860626843
C            2.29440041514626        5.53205967980960       -0.97620644186584
C            3.61862892390833        5.93507303524340       -0.80801279131531
C            3.99963713522539        7.37608909917455       -0.96232447181394
C            4.56736852169735        4.97220131228791       -0.51717044714049
C            4.22075381612098        3.62593166415345       -0.36186173569940
N            5.23356185798566        2.71063584864729       -0.11648100051651
C            6.55078404580150        3.20413029126153        0.10417024044736
C            6.88485909727514        3.73952691239539        1.34156168154327
C            8.17197518172728        4.19584288726317        1.55950495751119
C            9.12260873967518        4.11084690858526        0.55720475381159
C            8.80066158299967        3.57590833814074       -0.68438452636429
C            9.83367235581787        3.45019411028676       -1.76078995004753
C            7.50439776909645        3.13006778653657       -0.90241461581903
C            5.05891691397056        1.34061333816245       -0.11839694984034
C            6.16157358103666        0.49948605329785        0.01694388844962
C            6.00425633511620       -0.88365600950916       -0.07424266316430
N            7.12903708362435       -1.71633914859894       -0.02194202885971
C            7.04575768620756       -2.96710183768085        0.59193204655594
C            7.75349200439717       -4.05705411890825        0.08489657926622
C            7.63907349650892       -5.29390330193010        0.68815934997662
C            6.81779660507817       -5.46974685086590        1.78774520861121
C            6.10587375372270       -4.39382533438313        2.30779615394187
C            5.23775358780947       -4.57510696170656        3.51684806683589
C            6.23290577259076       -3.15176422785011        1.71135524937370
C            8.31821937988594       -1.29684751082358       -0.62537837731775
C            8.29139741350571       -0.58532420185892       -1.82508681382781
C            9.47223989586548       -0.16593971101629       -2.40347502536796
C           10.68899516248562       -0.44687644815643       -1.80533832240875
C           10.73450050312616       -1.15791743584193       -0.61086893888695
C           12.04790463590606       -1.44300328375186        0.05349436970326
C            9.54825524904035       -1.57351649542145       -0.02982445514898
C            4.73254925744324       -1.42761100779087       -0.22285317474799
C            3.61717092295685       -0.59283908174904       -0.22365985873631
C            3.75329590035211        0.81224461543631       -0.21363508130666
N            2.35109047064144       -1.14750003435854       -0.26781937843963
C            2.25155446250992       -2.56933745506986       -0.28484939836870
C            2.36867962171079       -3.28734211924150        0.89848595333116
C            2.24989405450872       -4.66481024929272        0.88296467775961
C            2.00949817592488       -5.32820016032148       -0.30846197345339
C            1.89664160741058       -4.61294577964911       -1.48874432044373
C            2.02070335601292       -3.23535773578192       -1.48153624930242
C           -6.45178663680231       -3.58874854356516        1.06227696798235
H           -5.09340950670708       -6.29328119642512        2.41987057434763
H           -4.94266095508644       -4.60921950204264        2.94949192004494
H           -6.33851873209635       -5.57332927233764        3.43472308901633
H           -7.01456449343543       -6.90683474924089        0.86234720250587
H           -8.27945386125629       -6.16705265410276       -1.11774546387016
H           -8.35800933437328       -3.78654364850614       -1.72632864723615
H           -9.73394752487470       -2.30251698387392        0.10320470187103
H          -11.65475092055969       -1.27319795110262       -1.04496916161154
H          -11.29729812569285        0.35437074899699       -2.85559396326665
H           -9.79954643581212        1.82995036523064       -4.05576525663370
H           -8.69632374243923        0.66176794405810       -4.78005531415026
H           -8.07335043019968        1.86428335993017       -3.65683689214240
H           -7.07618658125973       -0.05852155417417       -2.37416659744194
H           -7.25943170528596        0.67232657204002        0.40339911478992
H           -4.63857968332658       -2.51554041184649       -0.63599963988616
H           -1.76772288655859       -2.46901976735317       -2.36919035112304
H           -1.53050162428661       -4.91208765512731       -2.66030307531068
H           -1.90910176318191       -6.42285718249395       -0.74806564480984
H           -2.53916767769492       -5.49402292590961        1.44812227543236
H           -2.77133535439024       -3.04868936376522        1.73278857200875
H           -0.00836516568419       -2.19522117991870       -0.19506838733658
H           -0.06365566724500        2.67660989045244        0.17679012642035
H           -1.01789242416642        3.64747184522274        1.59349610403194
H           -1.65759668839534        5.90895382380690        2.22769932267624
H           -5.20042796110793        7.16984412852799        2.08181665319179
H           -3.81542350597641        7.26489137830718        3.17811203843285
H           -3.63118260467349        7.73227356298806        1.49169532062656
H           -5.72661226313664        5.00552784726425        1.37781130635593
H           -6.61563915482369        2.89732536729493        3.07873848282635
H           -8.97889285904242        3.58315036962732        3.34685756164537
H          -10.38432503248568        3.96016991413058        1.36393448428407
H          -10.14184987905728        2.74401998883069       -1.52227756459735
H           -9.11541182833118        4.06167864709465       -2.08677546104086
H          -10.50171098501508        4.40234854405526       -1.03792645972416
H           -7.07317269777070        3.00582732634873       -1.15810444024073
H            0.91986019940520        3.92464183594375       -1.00069530491607
H            1.54286849560429        6.26695166518409       -1.22928693117928
H            3.71065194934368        7.74360013048110       -1.94675003060515
H            3.48591183824341        7.98490807910802       -0.21825754816434
H            5.07181297891440        7.51184137941783       -0.84073442985768
H            5.60072133651675        5.27455981749757       -0.42708923981515
H            6.13477029469597        3.79670594877774        2.11583361544455
H            8.43666910619760        4.61572372557396        2.51864027680154
H           10.12720598176990        4.46381708358288        0.73971008868000
H           10.26209623330961        2.44744162636325       -1.73798427520204
H            9.39083351325320        3.60353929417857       -2.74223936150497
H           10.63674197927327        4.16893096125687       -1.61698873452928
H            7.22880477894894        2.71136171905450       -1.85952239183258
H            7.15216855667896        0.89468608818969        0.17412059218083
H            8.38073641416983       -3.92860109756218       -0.78468405272210
H            8.18748378754221       -6.13381420638143        0.28676096427956
H            6.72749420705695       -6.44350410425542        2.24631793535239
H            4.68898394163646       -5.51295223384436        3.45786664115302
H            4.53035830300486       -3.75563087859415        3.61526110220232
H            5.85208671528678       -4.60506820334562        4.41731710989298
H            5.69606769515614       -2.30498151737801        2.11443817447156
H            7.34374265583189       -0.37566957172913       -2.29797615935351
H            9.44466466798006        0.37445340895827       -3.33890460838177
H           11.60886337142227       -0.11900264521019       -2.26791828706529
H           12.36819634869154       -0.57666043525779        0.63346884419181
H           12.81734038800437       -1.65298147859304       -0.68653164361659
H           11.96567212130170       -2.29101906485078        0.72895404574248
H            9.56845806002083       -2.12042019847292        0.90222389037813
H            4.62792333233788       -2.49684448975913       -0.32212434152521
H            2.54739148279031       -2.75654855020950        1.82160157487879
H            2.34047309757191       -5.22062605865882        1.80385622257691
H            1.91068275416970       -6.40315894063145       -0.31745174968456
H            1.71204740177688       -5.12931581877533       -2.41885555762979
H            1.93085256390305       -2.66571807209913       -2.39454511623264
H           -5.95051789294015       -2.85624224465741        1.67852467033559
