164
 energy: -240.072730759300 gnorm: 0.000041787700 xtb: 6.7.1 (edcfbbe)
C           -8.40666999523736       -6.37762729786598        0.74170202345186
C           -7.69741762772803       -5.29844331237513       -0.02021380772529
C           -6.95599320431212       -5.61514286921874       -1.15379080012100
C           -6.29616664192843       -4.62157891053298       -1.85417993120354
C           -6.36452659340425       -3.30581996883203       -1.44069631117901
C           -7.08936663089363       -2.97236005624200       -0.29737262726003
N           -7.14634746839349       -1.64985763353405        0.15270377456844
C           -8.32753028775296       -1.14678673828320        0.70794339840346
C           -8.28770737028476       -0.25969854231141        1.78259796098393
C           -9.46239210972502        0.25099150829419        2.29851626398346
C          -10.68464696201693       -0.12177065934760        1.76928477228003
C          -10.74403843661363       -1.01819040812553        0.70719365354818
C          -12.07068442283067       -1.42252975618628        0.13716332777101
C           -9.56476712481635       -1.51833656749859        0.18252887057563
C           -6.02240997299000       -0.82386310081400        0.04050012861875
C           -6.18435603126419        0.53756910505178       -0.18167868043051
C           -5.06978435593071        1.37064786586813       -0.24442927017335
C           -3.76661820048076        0.83727503078452       -0.18974644455066
C           -3.63053844353909       -0.55497015407436       -0.01076510681510
C           -4.74788889323586       -1.36731194723272        0.15366611075893
N           -2.37054633223015       -1.11568142470357        0.02468823322105
C           -2.28314545573490       -2.53624884436944        0.06173044382832
C           -2.51795022516662       -3.26936006860833       -1.09434691817490
C           -2.42870508956765       -4.64917653168643       -1.06683822262896
C           -2.09823185603093       -5.30152827665056        0.10867903662175
C           -1.86609011510905       -4.57194787747224        1.26262711219165
C           -1.96286339954507       -3.19284224122884        1.24421777689776
C           -1.19918246751153       -0.38001066390736        0.05086306663349
C            0.00980952887371       -1.06132045807381        0.13716367625058
C            1.22174307934994       -0.39318821977277        0.26829817922238
C            1.24680656939479        1.02184802084538        0.33190206702070
C            0.02568486855888        1.66317736677548        0.13666353167037
C           -1.20514304247009        1.03414978207654       -0.03755432382378
B           -2.55007059641544        1.73742664741895       -0.31112063211489
C           -2.87022122022475        3.20398122097839       -0.67549318562489
C           -1.92816256309354        4.16914400732970       -1.05617437469216
C           -2.25818825222461        5.48313314449084       -1.28824117987095
C           -3.57772330395267        5.90951923215964       -1.13638960327974
C           -3.93429838843378        7.35047808784541       -1.34299369871086
C           -4.53995255753084        4.97731366056582       -0.81328399926074
C           -4.21766243298911        3.62702475818740       -0.61896893218602
N           -5.24393330125964        2.73245026293800       -0.37322121919772
C           -6.57781212556901        3.21665209177844       -0.23910765993981
C           -7.12960562875985        3.35242889600818        1.02786200228522
C           -8.43974195208510        3.77495378634694        1.15794639766227
C           -9.19385695443840        4.06498278340865        0.03483630291225
C           -8.65028077411575        3.94009202641102       -1.23806636471900
C           -9.47143782934122        4.23190158046979       -2.45697490907201
C           -7.33653514940756        3.50972427879189       -1.36368651581095
B            2.61055001701251        1.71614410369502        0.52244430075339
C            2.96212399554895        3.19207745510402        0.81150968425329
C            2.04677208666036        4.18018027974449        1.19808949868555
C            2.40898066235110        5.48714226636556        1.42225089928315
C            3.73969040052994        5.87855704778030        1.27627427704551
C            4.13688866805820        7.30564301667884        1.50377881601930
C            4.67564623870610        4.92423937905069        0.94052176359650
C            4.31545623174131        3.58750010731821        0.72041167312574
N            5.31724826323769        2.67555888060197        0.43714177475320
C            6.66379159339745        3.13930809289520        0.36471244229944
C            7.49282229085931        3.04031840992752        1.47567591045995
C            8.80685969653635        3.45832953361953        1.38285967532693
C            9.29065168832161        3.98014020138064        0.19533476296381
C            8.46878554051034        4.09270130900597       -0.91874935688568
C            8.99040341042053        4.64111572882565       -2.21190359746414
C            7.15151908592293        3.66219995108242       -0.82320554198694
C            5.12012138386718        1.31439426520115        0.33787380438831
C            6.21270124018328        0.46946934982902        0.15542431751515
C            6.03302268919524       -0.90770439767248        0.16145703412492
N            7.14243840412909       -1.75411062295602        0.05190832080208
C            8.36807855517059       -1.36867353504356        0.60453433120281
C            8.41735374589990       -0.68099917057726        1.81612885934041
C            9.63409277803212       -0.28182868986794        2.33300162619001
C           10.81116318484253       -0.57185506349232        1.66709228309920
C           10.78188876734026       -1.27094657876579        0.46479485201898
C           12.05961090537252       -1.58419113604321       -0.25462601680425
C            9.56029291965067       -1.65829575449350       -0.05838440233450
C            7.02473501533413       -2.97948642315595       -0.61029648837024
C            6.21767975630790       -3.10424033782524       -1.74027673470225
C            6.09124337125083       -4.32918212792761       -2.36524977360368
C            6.77277376689587       -5.43545801545042       -1.89111361089306
C            7.59510597819940       -5.32576209533456       -0.77449984553287
C            8.32906575362468       -6.52730440967568       -0.25897339302620
C            7.70897247286239       -4.10045302512307       -0.14078340969600
C            4.75744687587086       -1.44768499798366        0.27645125791150
C            3.65088095279511       -0.60528758579903        0.31859055854355
C            3.81038535448363        0.79499707719117        0.38920685031749
N            2.38182796148665       -1.14511898043736        0.32858431774426
C            2.25690516095585       -2.56395933264411        0.29187066894468
C            1.94078104275043       -3.26093868177179        1.45091343759906
C            1.79131084670910       -4.63538471118116        1.40941596631765
C            1.96527206719526       -5.31850482030923        0.21773249987151
C            2.29117362100957       -4.62544450368290       -0.93598632384025
C            2.43322811963472       -3.25046730545371       -0.90325505517069
C           -7.75248961188074       -3.98103275584688        0.40111960416500
H           -9.02878149045863       -6.97056303497710        0.07298063821208
H           -7.68356321883228       -7.04869449648862        1.20497570033570
H           -9.03474546463939       -5.95543024272796        1.52201946937968
H           -6.90047854771785       -6.64154560394107       -1.48578996380416
H           -5.73025205335979       -4.87216240735798       -2.73965778395519
H           -5.86010159817671       -2.53025811972932       -1.99678464163332
H           -7.33545740349721        0.02436774969331        2.20402307869235
H           -9.42304903344371        0.94012167342987        3.12941010072275
H          -11.59925444997043        0.28014496564560        2.18006123159826
H          -12.68239981076437       -1.89788042506759        0.90318410370556
H          -11.94466308275022       -2.11878527153543       -0.68802567219164
H          -12.61128704549635       -0.54812677357248       -0.22333614912280
H           -9.59496005495574       -2.20444439696313       -0.65224708559494
H           -7.18036200006694        0.93417764782466       -0.29563517410536
H           -4.64145037298814       -2.41972793505964        0.36415999992559
H           -2.77097448626987       -2.74957858058102       -2.00644063186304
H           -2.61359173384938       -5.21648955424309       -1.96668203883723
H           -2.02367306863745       -6.37842229633998        0.12650898327200
H           -1.61252671768923       -5.07894621422097        2.18169960838830
H           -1.78438591907150       -2.61375677035875        2.13820973506861
H            0.00727684037705       -2.13831181773958        0.09575815666564
H            0.03305252981192        2.73834404669282        0.11708420428215
H           -0.90273420118752        3.86470108339888       -1.19342183018661
H           -1.49763464652791        6.19396582471483       -1.57887332789306
H           -4.99843160643234        7.51608366578135       -1.19183237793270
H           -3.38111683919443        7.97991120837854       -0.64652206492026
H           -3.67208662648082        7.66468148458926       -2.35298100819414
H           -5.56624028182953        5.30069203869904       -0.71520310373336
H           -6.53084090691273        3.11964526925310        1.89538243131507
H           -8.87566415969772        3.87946630704590        2.14020417002487
H          -10.21738954385687        4.39236749332034        0.14569955816132
H           -9.95115762149133        3.31737853268233       -2.80742694990801
H           -8.84806809795290        4.61382799920967       -3.26217428417891
H          -10.25042797232272        4.95779758223123       -2.23626204905384
H           -6.89153575185967        3.39675662184122       -2.34207418637757
H            1.01667032702502        3.90006399397197        1.35046067954389
H            1.66729465528157        6.21630924257280        1.71622402741987
H            3.62600703120297        7.95688728438878        0.79489288078312
H            3.85460447406440        7.62265224534830        2.50725063361249
H            5.20995071116278        7.43689999705029        1.38559549877183
H            5.71256163047220        5.21782332071216        0.86178400280665
H            7.10240540421994        2.63153681257308        2.39526942297955
H            9.45830728181178        3.37765852871427        2.24008649156084
H           10.31916093227041        4.30489448893459        0.13280737000855
H            9.87687754587184        5.24879786000559       -2.04785817526033
H            9.25808626080152        3.82278061030995       -2.88095888452719
H            8.23366973375067        5.24463222941768       -2.70837819913458
H            6.49225116647364        3.73344161766342       -1.67642787505368
H            7.20811934589409        0.86478377882405        0.03351919775528
H            7.50028145475335       -0.46436765320674        2.34274727619756
H            9.66412641273783        0.25253827320246        3.27148029187858
H           11.75927308665860       -0.25864385164081        2.07918629804837
H           12.72154669495589       -2.16683076092869        0.38497782192915
H           12.57993316568076       -0.66458261476581       -0.52032380763142
H           11.86712985186719       -2.14948526400694       -1.16291029968690
H            9.52122195137945       -2.18964329794982       -0.99892793368932
H            5.69633417198137       -2.23868531786053       -2.12023617526837
H            5.46211048861886       -4.41840698802614       -3.23909841742041
H            6.67144072829412       -6.38936714854287       -2.38774746152141
H            7.62277685435864       -7.27144653391068        0.10854995587987
H            8.99895873569971       -6.25604449452618        0.55298158877104
H            8.91209574873335       -6.98787832126034       -1.05519942609061
H            8.33285933374407       -4.00422543068881        0.73663451885389
H            4.64182220195089       -2.51928953771283        0.30981652924859
H            1.80473250867960       -2.71647250246298        2.37362733447258
H            1.54080982553487       -5.17481074266767        2.31076493204736
H            1.84803755709882       -6.39135512828624        0.18815466161872
H            2.43160365213252       -5.15690271425436       -1.86525206862335
H            2.68059085110998       -2.69877613520032       -1.79788978950486
H           -8.31280354690786       -3.72277011183306        1.28865634156963
