  94
       -127.86950693
 C         -3.7560145557       -5.9113482124       -1.8375080259
 C         -3.9705220733       -4.4826962680       -1.4384218419
 C         -5.0805479871       -3.7695523067       -1.8715085856
 C         -5.2792305169       -2.4556371879       -1.4946568507
 C         -4.3682853288       -1.8162414382       -0.6554862872
 N         -4.5662282087       -0.4901732884       -0.2622416518
 C         -5.8586647739       -0.0045245451       -0.0392862176
 C         -6.1958482479        1.3001117448       -0.3993718583
 C         -7.4702028962        1.7797142409       -0.1752443373
 C         -8.4497630534        0.9797700661        0.4017519620
 C         -9.8261914070        1.5150038249        0.6561793079
 C         -8.1095226064       -0.3203898429        0.7551283834
 C         -6.8353255589       -0.8092989651        0.5452943611
 C         -3.4716961237        0.3639538236       -0.0982889880
 C         -2.3780479162        0.3035156143       -0.9614253506
 C         -1.3105195630        1.1589621208       -0.7940383107
 C         -1.2853702899        2.1077635464        0.2263281260
 C         -0.0848896029        3.0420199306        0.3229673660
 C          1.1448862089        2.1490186803        0.2607264742
 C          1.4184209905        1.3041953346        1.3343116920
 C          2.4966493139        0.4448145186        1.3277516468
 C          3.3422406323        0.3802393240        0.2211533581
 N          4.4371749389       -0.4874844584        0.2015301356
 C          5.6229766140       -0.1006297021       -0.4299772739
 C          6.3894439805       -1.0275626327       -1.1358282183
 C          7.5625381951       -0.6401954888       -1.7510947064
 C          8.0057277391        0.6761053935       -1.6941539785
 C          9.2664183870        1.0936276246       -2.3885795279
 C          7.2350760540        1.5969476245       -0.9947439651
 C          6.0649097519        1.2203461520       -0.3665001357
 C          4.3414658456       -1.7486869983        0.7978124291
 C          5.4339538924       -2.3057191127        1.4622092278
 C          5.3372812470       -3.5558831895        2.0380945816
 C          4.1550029744       -4.2857781887        1.9823434736
 C          4.0717171055       -5.6512857759        2.5941083722
 C          3.0673284202       -3.7218844598        1.3276754155
 C          3.1534975423       -2.4758176622        0.7387366418
 C          3.0550264395        1.1917841992       -0.8731886827
 C          1.9756055129        2.0536947029       -0.8502240341
 C         -0.1917532105        4.0489557099       -0.8404620492
 C          0.9073397397        5.1106746834       -0.8214201765
 C          0.9322402945        5.8529402717        0.5091079234
 C          1.0833717790        4.8494767002        1.6458896509
 C         -0.0839984035        3.8683035103        1.6207890712
 C         -2.3751757203        2.1568176969        1.0854211628
 C         -3.4492922537        1.3007616713        0.9312836501
 C         -3.2522235838       -2.5288829373       -0.2151581444
 C         -3.0604874599       -3.8373596865       -0.6076036286
 H         -2.7380945331       -6.0616320962       -2.1936494577
 H         -3.9096039573       -6.5692553789       -0.9816767515
 H         -4.4489281508       -6.2033627929       -2.6226489627
 H         -5.8002066269       -4.2453013359       -2.5225355419
 H         -6.1431592639       -1.9147910361       -1.8518380030
 H         -5.4505405212        1.9321401209       -0.8593392967
 H         -7.7127096376        2.7926032039       -0.4642709755
 H        -10.1000121794        2.2515003645       -0.0961085043
 H         -9.8642747626        2.0012421884        1.6319490497
 H        -10.5613436129        0.7137086478        0.6506453267
 H         -8.8520087381       -0.9602227652        1.2104565339
 H         -6.5873556823       -1.8198751369        0.8348171025
 H         -2.3747443420       -0.4178054685       -1.7652074544
 H         -0.4745270023        1.0878268338       -1.4732250317
 H          0.7713463219        1.3067815019        2.1980062724
 H          2.6885751988       -0.1883019210        2.1813407317
 H          6.0570332567       -2.0533382833       -1.1976788299
 H          8.1418262476       -1.3734801421       -2.2939609214
 H          9.0524875066        1.3631575729       -3.4237524591
 H          9.9906791499        0.2822147385       -2.3966446785
 H          9.7098190175        1.9584950309       -1.9004796430
 H          7.5610516799        2.6255876659       -0.9318283233
 H          5.4853090570        1.9479506226        0.1822753975
 H          6.3576161167       -1.7492369357        1.5237902506
 H          6.1944067834       -3.9712221838        2.5488169245
 H          4.5435006391       -6.3844754362        1.9387601450
 H          3.0364183510       -5.9471842644        2.7450460033
 H          4.5897449744       -5.6779598295        3.5507631798
 H          2.1372965847       -4.2694826188        1.2691000342
 H          2.2993106170       -2.0573661927        0.2271607809
 H          3.6808248024        1.1374225431       -1.7520665870
 H          1.7835844010        2.6378990042       -1.7352431914
 H         -1.1610314758        4.5463000009       -0.7507403261
 H         -0.1908168144        3.5232090056       -1.7956238302
 H          0.7382843341        5.8144938888       -1.6402416643
 H          1.8812570447        4.6465630319       -0.9727101744
 H          1.7567625712        6.5688292430        0.5209552402
 H          0.0018081597        6.4109330844        0.6392789457
 H          1.1040639533        5.3705114229        2.6058468185
 H          2.0232254907        4.3058642159        1.5348473518
 H         -1.0084393751        4.4452176193        1.6728973774
 H         -0.0398156768        3.2173038860        2.4927193731
 H         -2.4040869232        2.8597647910        1.9020629429
 H         -4.2831403238        1.3557625701        1.6156622466
 H         -2.5389198902       -2.0475702577        0.4374919803
 H         -2.1903980308       -4.3737013315       -0.2559985382
