80
 energy: -135.770459280042 gnorm: 0.000066706833 xtb: 6.7.1 (edcfbbe)
F           -1.56323565774520        5.67818621707955        0.08368750945101
C           -2.76542945337796        5.37218546969368       -0.45619362987792
F           -2.71540436462316        5.81068024773776       -1.72557475930872
F           -3.65911646764032        6.14741847012936        0.17832944397976
C           -3.07556619173424        3.91223591590952       -0.35534931222828
C           -2.59259079599567        3.03867759597883       -1.32868385761993
C           -2.83936664819619        1.68891329444948       -1.22164929100907
C           -3.57548156860900        1.19246617620931       -0.13813462180268
N           -3.80238146492600       -0.17671557702240       -0.02442014921482
C           -2.79935566265824       -1.17457615514459       -0.04495531133523
C           -1.41218909009513       -0.99853962132306        0.00263938672517
C           -0.73328900353259        0.20691951308165        0.34831708149534
C            0.62601413001401        0.26917123468605        0.35737782737683
C            1.43943550292668       -0.85010959959355        0.04355008395122
C            2.87144069251481       -0.75966417219843        0.04288073444259
C            3.53190708554552        0.47057260311988       -0.16392657275063
C            4.90052801570040        0.56243138704879       -0.16057123804226
C            5.68876693747632       -0.57351702270692        0.05441987112493
N            7.07969295119259       -0.48084999974378        0.06547860681373
C            7.82172558072570        0.46136652668188        0.75245154940070
C            7.39800053344590        1.46654556230200        1.61082492739070
C            8.36332978464436        2.26044797283856        2.20123690549964
C            9.71961631226774        2.05853582656629        1.95814745914076
C           10.14908306150143        1.03984780084150        1.12868967029114
C            9.19828379616766        0.23063721938994        0.52418950662173
C            9.28195122742212       -0.90760259158165       -0.35011677855912
C           10.34245557177938       -1.58499007468744       -0.93376088545205
C           10.06694807948329       -2.65151081157689       -1.76851538744921
C            8.75398047411305       -3.02975845569796       -2.03759973492314
C            7.68130079504039       -2.36907342049251       -1.46874642868033
C            7.95228413337495       -1.31688060658800       -0.60491873197242
C            5.05485774541255       -1.80392350697221        0.25989913547363
C            3.68605174071414       -1.89309298329710        0.25123547075367
C            0.76178352568358       -2.06677527222291       -0.23982458661187
C           -0.59362225612790       -2.14204147050958       -0.25614787698255
N           -3.35863458127655       -2.40052485168885       -0.00921304329664
C           -4.66506518635351       -2.22457759353379        0.09707370999588
C           -5.66485604913073       -3.22972064756292        0.25432470387758
C           -5.31096442199658       -4.57687333520022        0.35523281557372
C           -6.27729793954973       -5.53651534831910        0.55758757045545
C           -7.60657232483446       -5.14726655159874        0.67050538009823
C           -7.96615051245720       -3.81891314923161        0.56412517455526
C           -7.01342165183926       -2.81737398399961        0.34098421868572
C           -7.36243457934516       -1.41447200084198        0.17191110191303
C           -8.69339836608336       -0.99738457043885        0.12934165117890
C           -9.04713703335995        0.31884439427643       -0.08589515896954
C           -8.05938288581144        1.27775577458207       -0.29919316753028
C           -6.73836433949045        0.91672056741845       -0.25595477908735
C           -6.34758350766833       -0.41533025483049        0.00577940236836
C           -5.00642299110357       -0.83871001286836        0.06577429184477
C           -4.05507399489383        2.07659609222678        0.83631756179717
C           -3.80263952367300        3.42595447124410        0.73039843961001
H           -2.03532836595143        3.42640225749340       -2.16728317656369
H           -2.47001926100414        1.00312355343075       -1.96820981083093
H           -1.29703249372621        1.06771795130147        0.66887811285197
H            1.09799927051604        1.18926307717358        0.66769834671063
H            2.95214831374649        1.35530889089492       -0.37599460885018
H            5.38193108688095        1.50820384779249       -0.36101500552618
H            6.35111861375855        1.61723548739029        1.82498512977299
H            8.05838008486960        3.05151976329153        2.86993313393915
H           10.44315667866694        2.70171116702962        2.43613306453248
H           11.20113786928022        0.87020901327832        0.95686755776866
H           11.35952364331271       -1.27861976077005       -0.74187939829052
H           10.87800034228028       -3.19433348350896       -2.23026979751354
H            8.56888750222216       -3.85434579267288       -2.70976924694018
H            6.66762712202398       -2.65560273581292       -1.70319766229860
H            5.65477548374504       -2.67837062484147        0.46458499018406
H            3.22657590990976       -2.84682257943296        0.45812111346599
H            1.33822444829347       -2.94426807952236       -0.48981802007330
H           -1.09898934021082       -3.06473730675587       -0.49159825231695
H           -4.26546608128963       -4.83107282883478        0.27813898489542
H           -6.00786669059904       -6.57893227723011        0.63616805533866
H           -8.37091888556268       -5.89108842700431        0.84293859906821
H           -9.01012261994739       -3.56801569748889        0.66317409721673
H           -9.48530378715732       -1.71817271336160        0.25383053683152
H          -10.08903990649912        0.60010710365014       -0.10887450626897
H           -8.33286753521512        2.30187644891364       -0.50438341318367
H           -5.98343577774385        1.65953470082861       -0.45276608144895
H           -4.61166725813086        1.68853442100059        1.67593936085022
H           -4.16203203541394        4.10806077639809        1.48518273699127
