80
 energy: -135.851170279583 gnorm: 0.000131325950 xtb: 6.7.1 (edcfbbe)
F           -0.90247035056335        5.33995521205269       -0.84625284134749
C           -2.16130819913713        5.22430336127467       -0.39295011219465
F           -2.93227525148263        5.91965169583800       -1.25323143398391
F           -2.20993023131867        5.88615467698556        0.77158289505822
C           -2.60092640614605        3.79327372241990       -0.27563254835855
C           -2.20117837848293        2.88193176495770       -1.24554764695087
C           -2.61650437864125        1.56791290755341       -1.16193104974535
C           -3.43348183771547        1.16346099253259       -0.10904138317354
N           -3.80927520332313       -0.18193577857663       -0.00188204210497
C           -2.92509223074977       -1.23941072496116        0.12036784202843
C           -1.47806054307370       -1.10704098443762        0.14353804404863
C           -0.82344462443246       -0.05254086898877        0.77837766925982
C            0.55413098916920        0.02173605137512        0.76451894506862
C            1.32029075983062       -0.95542014296842        0.13121131471504
C            2.78495790101382       -0.86325076330456        0.11146671443620
C            3.41887971346499        0.36385916754860       -0.07798644439899
C            4.79533772989291        0.45433647717070       -0.10638305219681
C            5.57577161301674       -0.68526200729571        0.07185791670630
N            6.97223454889500       -0.59640928071473        0.05263827838731
C            7.73531900973850        0.29951924577388        0.77634966200967
C            7.33758379398163        1.25705405140713        1.69828062298639
C            8.32057849514640        2.01189587309198        2.30918298001593
C            9.67005331422674        1.81907088317338        2.02226359446336
C           10.07332043148239        0.85101057405758        1.12455430950364
C            9.10367406213388        0.07967651258391        0.49762935456918
C            9.15966709859504       -1.00049397514763       -0.44721763885578
C           10.20215734095418       -1.64494439928369       -1.09992264633084
C            9.90088264379877       -2.65700676120315       -1.98909613825652
C            8.57939531349684       -3.01786696066867       -2.24219310620175
C            7.52531395121261       -2.39159385244356       -1.60504562803252
C            7.82300401496927       -1.39058832428848       -0.69156525277701
C            4.95146340620497       -1.91436527006216        0.27023826338300
C            3.57449892610069       -1.99958868902460        0.28100976672094
C            0.66166267522975       -2.02615638190376       -0.47315255330720
C           -0.71434660678651       -2.10280759567581       -0.46643050050653
N           -3.54481856812544       -2.38334497443504        0.23349996157109
C           -4.87419847801287       -2.10157314795562        0.19347081410664
C           -5.96101643932769       -3.01063209125996        0.32133205370157
C           -5.74224247067413       -4.37755778874122        0.52149556610304
C           -6.80416526726308       -5.23224257341709        0.68022698438204
C           -8.10177702424293       -4.72529591622993        0.64482525450323
C           -8.32808971108579       -3.38399543203131        0.44226208117482
C           -7.26966901134500       -2.47953378173850        0.26510992628675
C           -7.47478150063482       -1.06457745337090        0.00825625332428
C           -8.76013488764463       -0.52453310423987       -0.14133476504329
C           -8.96488741248590        0.80200975798410       -0.43780308198332
C           -7.87882724112901        1.65188427132717       -0.62086627563166
C           -6.60344104615241        1.16565246300938       -0.47279861655662
C           -6.37321959520555       -0.17595170127447       -0.13520056159908
C           -5.07429740890647       -0.73233421544241        0.03581243722308
C           -3.83422631103869        2.08328326579755        0.85884983055238
C           -3.42283439597428        3.39841253720164        0.77291778405610
H           -1.56678718076917        3.20273260125616       -2.05716199822463
H           -2.30997604266825        0.84869089678117       -1.90550684141918
H           -1.38685808440693        0.69908657548771        1.31112102241822
H            1.04575393286810        0.83581388174768        1.27634024013033
H            2.82494162211734        1.25205332527596       -0.23594288763150
H            5.27528483840376        1.40502668842958       -0.28423436120679
H            6.29584899570035        1.40191300024672        1.94191543276561
H            8.03604356549156        2.76607632281331        3.02810714279602
H           10.40774830045521        2.43155822726426        2.51898401197822
H           11.11988693771440        0.68955236978251        0.91453676206216
H           11.22518990804537       -1.35325934461348       -0.91608227901320
H           10.69674767330442       -3.17256581294455       -2.50568237483243
H            8.37359778780377       -3.80238948263827       -2.95550105220297
H            6.50407412058405       -2.66615620683595       -1.82254878370120
H            5.55335879313541       -2.79581083836326        0.43334564252045
H            3.10250363461321       -2.95494662096207        0.45609169317847
H            1.23661147319386       -2.79192541970380       -0.97231797720360
H           -1.22459535732341       -2.92908482094831       -0.93625767870574
H           -4.72164683828423       -4.72578910113625        0.55349784131546
H           -6.64105197591461       -6.28813950073517        0.83701070930201
H           -8.94063262757862       -5.39307277588351        0.77779325713655
H           -9.34931186519690       -3.03806489797409        0.42594616251875
H           -9.62383793564240       -1.16032691360005       -0.03417938570579
H           -9.97017797010542        1.18137441885540       -0.54523622871794
H           -8.03605908818988        2.68734462005139       -0.88349863130943
H           -5.76578840743113        1.82409962898181       -0.64077369192091
H           -4.46622142656499        1.75945296611691        1.67200105161657
H           -3.72719711858800        4.11398632073648        1.52084702433962
