80
 energy: -135.850835264537 gnorm: 0.000037382126 xtb: 6.7.1 (edcfbbe)
F           -3.40871999312361        6.34468107643754        0.90435922293286
C           -2.42283210596808        5.46498480773329        1.17355350673297
F           -2.12070180982737        5.63381314125028        2.47140941779968
F           -1.35458864408376        5.87460327394535        0.47608046265830
C           -2.82894759875020        4.05435313830583        0.85705302788897
C           -2.43581638604048        3.46178585799427       -0.33547875766340
C           -2.84018931525471        2.17265496220719       -0.62307149703165
C           -3.63971239616368        1.47651077994353        0.27931495485856
N           -4.01024237804942        0.15455136072172       -0.00034646642731
C           -3.12282481222139       -0.88794762532727       -0.20008171799645
C           -1.67558830028105       -0.76411232891234       -0.14742260073514
C           -1.01894473452319        0.05371379273293        0.77071893426417
C            0.35949678541283        0.11636967988959        0.78645575081526
C            1.12208438008038       -0.62930957227324       -0.11021690947733
C            2.58851022743664       -0.55238166868710       -0.09434661298818
C            3.31168275113838       -0.50375005824827       -1.28468694368355
C            4.68977477963073       -0.43310953098098       -1.27436900490654
C            5.38014604639909       -0.41125005007174       -0.06526772051997
N            6.77831324456221       -0.34043204864646       -0.05074453137571
C            7.54815915743050        0.57585844393341       -0.74036259879238
C            7.15259221378234        1.63788726176625       -1.54076737669703
C            8.13965801691928        2.42986051322476       -2.09543342402498
C            9.48998354890309        2.18311857701026       -1.85773105467005
C            9.88868516955162        1.14247536888004       -1.04301870312918
C            8.91499199180138        0.33248241371920       -0.47370759620496
C            8.96310188754693       -0.79310823386367        0.41698530709691
C           10.00215045933248       -1.50028217356666        1.00736218745872
C            9.69458445084029       -2.57641745253157        1.81543801118034
C            8.37168653789618       -2.95906537595673        2.02595487142638
C            7.32084717468205       -2.27128569988344        1.44985425385049
C            7.62283630932669       -1.17426050374701        0.65588477492529
C            4.66607033166247       -0.46082347814435        1.12913140701198
C            3.28801023382462       -0.52968943411616        1.11080136724074
C            0.46138786814236       -1.46123566514499       -1.01364790735349
C           -0.91478464550687       -1.53514176028872       -1.02700865081808
N           -3.73876805295896       -2.01876276981666       -0.41777898652966
C           -5.06910362378943       -1.74467654614216       -0.35970776701781
C           -6.15231783923209       -2.65810031484965       -0.48708650824515
C           -5.92822183109535       -4.02311354568716       -0.69432333358981
C           -6.98619888293568       -4.89351879052786       -0.77465822786379
C           -8.28501990326567       -4.40587138354219       -0.64300869655335
C           -8.51663515479339       -3.06468041766123       -0.44575829164789
C           -7.46254265679677       -2.14126264408779       -0.36906923369114
C           -7.67381628076338       -0.71372275688866       -0.20284077384635
C           -8.96219263173508       -0.16113886666154       -0.17306989351992
C           -9.17371259238048        1.19314385780024       -0.06957866918391
C           -8.09198460950902        2.06601244248432       -0.01259667462631
C           -6.81369152541805        1.56532234742928       -0.02865073493993
C           -6.57603272187576        0.18484854214125       -0.09707180357435
C           -5.27380598012072       -0.38977891007902       -0.11073812129750
C           -4.03165294100903        2.07716306066588        1.47524644882533
C           -3.63074033174081        3.36626487070777        1.76129584972212
H           -1.81659349951152        4.00590328272348       -1.03129728310975
H           -2.53919092326198        1.69825360789796       -1.54424007216643
H           -1.58139439221989        0.62503003735408        1.49426473176932
H            0.85308034418025        0.76480823138561        1.49530828227712
H            2.78572614718345       -0.50816607896574       -2.22804545034991
H            5.24169953839294       -0.40860179201238       -2.20212156444983
H            6.10830934190713        1.84876152134316       -1.71609216769027
H            7.85745927864767        3.26153498338558       -2.72416075183159
H           10.23114894142907        2.82386483833515       -2.31181840679208
H           10.93436412903637        0.96101553862488       -0.84524596847611
H           11.02781889882973       -1.21330167351953        0.83088442507728
H           10.48752728816972       -3.13865481346131        2.28578323519160
H            8.16255151202016       -3.81511620241418        2.65050621194268
H            6.30000126024539       -2.58699674679203        1.60459286381306
H            5.19816711645469       -0.43145477521737        2.06823625716734
H            2.74508835027472       -0.58195508663075        2.04292300315695
H            1.03726409007657       -2.07074575635829       -1.69427098782630
H           -1.42719732339366       -2.18925026206553       -1.71507048865434
H           -4.90667760381612       -4.35963514283428       -0.77868795085980
H           -6.81896990108916       -5.94861972544282       -0.93246085341807
H           -9.12061076479509       -5.08866898243566       -0.69655997733438
H           -9.53852240516548       -2.73498144366701       -0.34636775213935
H           -9.82303457452474       -0.80583561546473       -0.24391659939009
H          -10.18115679971601        1.58136618704337       -0.04947090970731
H           -8.25474355265865        3.13220424998724        0.03832623323934
H           -5.97995889954259        2.24933996558163       -0.00967715606435
H           -4.64921476133167        1.52801558944217        2.16987775161580
H           -3.92736372288992        3.83765909958511        2.68554837892889
