  80
       -135.76821222
 F         -1.5620270953        5.6757261541        0.0944024731
 C         -2.7566868868        5.3667243795       -0.4607707444
 F         -2.6897641202        5.8007575852       -1.7307669723
 F         -3.6590732044        6.1442630462        0.1591256771
 C         -3.0682676763        3.9075008284       -0.3578615444
 C         -2.5964371028        3.0317626334       -1.3349873411
 C         -2.8458303400        1.6828517496       -1.2245409880
 C         -3.5737122894        1.1891342979       -0.1340607574
 N         -3.8024897502       -0.1799775873       -0.0177601096
 C         -2.8014450317       -1.1783200733       -0.0430879086
 C         -1.4124078350       -1.0017044707       -0.0048281646
 C         -0.7328411608        0.2021935526        0.3396787482
 C          0.6269043859        0.2653454149        0.3401233549
 C          1.4389650559       -0.8523121951        0.0180095497
 C          2.8695571721       -0.7607239673        0.0099546375
 C          3.5289628710        0.4724929736       -0.1898062536
 C          4.8967812779        0.5670600059       -0.1852214188
 C          5.6882269089       -0.5686686624        0.0241730726
 N          7.0778674903       -0.4720477036        0.0471830159
 C          7.8105858507        0.4693244050        0.7459288213
 C          7.3754410257        1.4783508547        1.5941603382
 C          8.3328150857        2.2716079238        2.1984122551
 C          9.6924636081        2.0648529657        1.9797376318
 C         10.1330888241        1.0412638963        1.1619805845
 C          9.1904424335        0.2332431091        0.5436043583
 C          9.2863828765       -0.9080122135       -0.3255583013
 C         10.3553788188       -1.5917497230       -0.8854733465
 C         10.0919477283       -2.6588212768       -1.7236897501
 C          8.7829540837       -3.0300957825       -2.0204743936
 C          7.7019494914       -2.3634347668       -1.4746273290
 C          7.9600603723       -1.3124036943       -0.6052190943
 C          5.0558264060       -1.8029423206        0.2165844600
 C          3.6878751502       -1.8949590411        0.2063380997
 C          0.7598405982       -2.0681100699       -0.2639129177
 C         -0.5961559193       -2.1433445648       -0.2720241716
 N         -3.3598682332       -2.4023724051       -0.0058543464
 C         -4.6673862349       -2.2257465704        0.1032799306
 C         -5.6674922743       -3.2305022627        0.2561151685
 C         -5.3148063515       -4.5788879610        0.3466214587
 C         -6.2822538196       -5.5395808279        0.5384352035
 C         -7.6116837214       -5.1502960714        0.6505609153
 C         -7.9700587075       -3.8207184547        0.5556298108
 C         -7.0160451228       -2.8174575081        0.3447933301
 C         -7.3631331783       -1.4131482166        0.1886475940
 C         -8.6935590997       -0.9921659137        0.1593897037
 C         -9.0457253227        0.3256078639       -0.0473535385
 C         -8.0573241824        1.2833902706       -0.2645422886
 C         -6.7370258699        0.9194805819       -0.2308942290
 C         -6.3472709949       -0.4146738582        0.0224665237
 C         -5.0065895293       -0.8402058205        0.0750471265
 C         -4.0421203418        2.0752005886        0.8443097797
 C         -3.7867666596        3.4236246954        0.7351665472
 H         -2.0465245890        3.4173010216       -2.1793870798
 H         -2.4849790075        0.9953719411       -1.9737258524
 H         -1.2947608093        1.0619788414        0.6662119675
 H          1.0998452802        1.1849109146        0.6503830944
 H          2.9477325670        1.3570668426       -0.3983041180
 H          5.3759921626        1.5145997797       -0.3824952791
 H          6.3258375345        1.6326839292        1.7912099897
 H          8.0184930425        3.0658125617        2.8589551430
 H         10.4095865470        2.7074361297        2.4680259865
 H         11.1874204233        0.8670298413        1.0099553882
 H         11.3697383659       -1.2900520453       -0.6730274627
 H         10.9097620756       -3.2067709834       -2.1670635702
 H          8.6077287746       -3.8537533109       -2.6963672478
 H          6.6921000915       -2.6446619376       -1.7308571643
 H          5.6571836129       -2.6777675168        0.4154066865
 H          3.2307648691       -2.8515795699        0.4046597686
 H          1.3341884883       -2.9450464465       -0.5204890672
 H         -1.1026518652       -3.0657241116       -0.5064500652
 H         -4.2693698388       -4.8331439993        0.2686270628
 H         -6.0138176549       -6.5828884972        0.6080686807
 H         -8.3771656007       -5.8951598217        0.8132969199
 H         -9.0142723250       -3.5703407525        0.6533799924
 H         -9.4862425682       -1.7114303001        0.2878007647
 H        -10.0871208093        0.6095020402       -0.0611245441
 H         -8.3302076269        2.3086908967       -0.4649374256
 H         -5.9816463511        1.6613459906       -0.4293358107
 H         -4.5917374007        1.6890851442        1.6894044360
 H         -4.1374180857        4.1074766174        1.4925382843
