80
 energy: -135.770423611918 gnorm: 0.000145745977 xtb: 6.7.1 (edcfbbe)
F           -1.31433979443267        5.69236270643537       -0.77838747454797
C           -2.58894577081406        5.48184977140089       -0.40068302463206
F           -3.35047720081255        6.10612987266277       -1.32670088431963
F           -2.76249755158358        6.16530919084250        0.74054265669083
C           -2.92019924451439        4.02807277692642       -0.27838651261350
C           -2.45197582023928        3.14435131427492       -1.25030861343351
C           -2.75771961598920        1.80546104348288       -1.16431160787591
C           -3.54643238958495        1.33126995397199       -0.10803990361264
N           -3.83007477548952       -0.02888515022440       -0.01389998030993
C           -2.86459111209521       -1.06315202849160       -0.01910264924241
C           -1.47378050574237       -0.93816274373952        0.06545101572968
C           -0.76082887289703        0.23684901604805        0.44597559264532
C            0.59944662365874        0.25458977587853        0.47209100740995
C            1.38013329173027       -0.88334760997344        0.14162025423785
C            2.81392442939856       -0.83544403069683        0.13745075375076
C            3.50947025989122        0.37912585871091       -0.04710048431814
C            4.88016912557921        0.42899071258295       -0.06313759484713
C            5.63579328422207       -0.73612307672827        0.10832662599412
N            7.02888500292172       -0.68992901633297        0.08685533301212
C            7.82118750171059        0.20978898955622        0.77439870651320
C            7.45584727261141        1.20747264732980        1.66760529603427
C            8.46370367651278        1.95420289828847        2.24850521514241
C            9.80505783240442        1.71312954854188        1.96207877597961
C           10.17646713629165        0.70118657858119        1.09709430333781
C            9.18228224913584       -0.06099810183699        0.50138243085599
C            9.20293361986234       -1.17904804711614       -0.40225531107011
C           10.22299612744797       -1.87623730978728       -1.03282963260058
C            9.88800293555875       -2.91080085633034       -1.88588179977231
C            8.55590038586406       -3.23759798310745       -2.12678810701252
C            7.52273253339236       -2.55653563868274       -1.51082668244721
C            7.85359238044585       -1.53706181276344       -0.62881369853456
C            4.96705639125115       -1.95044542692207        0.29885855709511
C            3.59630077055536       -1.99732865368455        0.31094855001415
C            0.66653534218962       -2.07414577522694       -0.16382821140150
C           -0.69019417812665       -2.10518207272820       -0.19605027112394
N           -3.46917756467223       -2.26770334767388       -0.01693077610242
C           -4.77092706723337       -2.04445835837426        0.05234834048511
C           -5.81136601632023       -3.01386258068057        0.16249547911274
C           -5.51031385069674       -4.37464584199985        0.25157478864246
C           -6.51709885533796       -5.30090803769858        0.40624607312423
C           -7.83426403041975       -4.86446956129827        0.48315735726622
C           -8.14145086951855       -3.52216594034242        0.38831004160379
C           -7.14601847979574       -2.55313512780674        0.21305887022017
C           -7.43766925049869       -1.13588636565033        0.05533151089788
C           -8.75037546838297       -0.66873692463147       -0.02136539253664
C           -9.04830557717819        0.66220949790261       -0.23039004662911
C           -8.01970512514567        1.58598642304345       -0.40159701487032
C           -6.71490168344589        1.17558326639456       -0.32162221457131
C           -6.38209391559653       -0.17311644534973       -0.06541572533106
C           -5.05990273726115       -0.64661219252729        0.03023622768627
C           -4.01885645457441        2.22659697640898        0.85939784552033
C           -3.70786217518068        3.56551779806206        0.77431410062964
H           -1.85075791649249        3.51574198570066       -2.06570044659310
H           -2.39619170156868        1.11144496098131       -1.90706034312023
H           -1.30135737731919        1.10819104967892        0.77820726682967
H            1.09739406952651        1.15220131760584        0.80675110870768
H            2.95471715608776        1.28640054072552       -0.22850277627467
H            5.38740453254643        1.36442617762746       -0.24779201306983
H            6.42097993188467        1.38787225102255        1.91473292541463
H            8.20464174312261        2.73868086348116        2.94380043608351
H           10.56305815485911        2.32018640599608        2.43388170475354
H           11.21693563370637        0.50096310748444        0.89102815127048
H           11.25489952629861       -1.60917407541828       -0.86267664164174
H           10.66681767043720       -3.46828287152690       -2.38422036924156
H            8.32399014053473       -4.03744329327798       -2.81416109113781
H            6.49369201427037       -2.80250655908898       -1.72338776879530
H            5.54280804499118       -2.84737987028671        0.47360990932685
H            3.11113481653341       -2.94106694617159        0.50447313590122
H            1.21657385273570       -2.96674136525102       -0.41937216424844
H           -1.22264747678624       -3.00750076892014       -0.45007411817847
H           -4.47283720888424       -4.66608825365260        0.20319218465946
H           -6.28866300356967       -6.35375462785253        0.47506584509340
H           -8.63047808821553       -5.58220832102969        0.61774675471450
H           -9.17829815794030       -3.23447240693984        0.45771843666546
H           -9.57188599748680       -1.36075338659284        0.07032459690524
H          -10.07789215044434        0.98244105694871       -0.28141107579797
H           -8.24870095645766        2.62170233081472       -0.60298874937770
H           -5.92709772379115        1.89187250286528       -0.48530588318515
H           -4.61771541421664        1.85560097075652        1.67737306019378
H           -4.06000985218290        4.25467530536122        1.52600675840586
