  75
       -117.15393971
 O          0.1853624033        2.8438940614       -2.7654982845
 P          0.1341171222        2.3438044540       -1.3834506751
 C          0.1091833940        3.6752987786       -0.1352044557
 C         -0.4992333328        4.8649461745       -0.5118686192
 C         -0.5886439493        5.9141362931        0.3842827130
 C         -0.0672090028        5.7759935548        1.6610340225
 C          0.5482849436        4.5920886853        2.0356918600
 C          0.6379297499        3.5399259314        1.1415982883
 C          1.5290221223        1.2674218472       -0.9351170355
 C          2.6781050818        1.3706141538       -1.7182424138
 C          3.8038453038        0.5961082533       -1.4455461285
 C          3.7456235966       -0.2659413554       -0.3647431015
 C          2.5635343506       -0.4051559703        0.4212382781
 C          1.4459922140        0.3735868175        0.1266717644
 C          2.8308094373       -1.4123003218        1.3933002750
 C          2.0889660833       -1.9711032764        2.4347539311
 C          2.6892342186       -2.9303819336        3.2339457170
 C          4.0049310386       -3.3335774812        3.0259959365
 C          4.7638952881       -2.7957905794        1.9869749247
 C          4.1643684026       -1.8562427615        1.1688142061
 N          4.6950062477       -1.1524989535        0.1021201986
 C          5.9757756032       -1.3197172633       -0.4214699172
 C          6.7853981941       -0.2082586672       -0.6735246332
 C          8.0518655784       -0.3813842571       -1.1920792394
 C          8.5302099653       -1.6549246825       -1.4689378764
 C          7.7280771990       -2.7604842257       -1.2206389807
 C          6.4606054241       -2.6010026552       -0.7001633242
 C         -1.3390223604        1.3390407402       -1.0168857021
 C         -1.8158979810        0.5554927808       -2.0693102158
 C         -2.9297030991       -0.2642994969       -1.9048702982
 C         -3.5429381149       -0.2743725722       -0.6646236582
 C         -3.0407431248        0.4923316070        0.4293712572
 C         -1.9319846407        1.3165221978        0.2384442041
 C         -3.8651077796        0.1961378521        1.5529135417
 C         -3.8877574506        0.6339607724        2.8779941317
 C         -4.8806872845        0.1537181526        3.7175049852
 C         -5.8495060006       -0.7363527007        3.2662291535
 C         -5.8452406266       -1.1922648696        1.9470238751
 C         -4.8433282944       -0.7383698700        1.1103217093
 N         -4.6290740738       -1.0060354975       -0.2308594600
 C         -5.3906850691       -1.8666532754       -1.0184859222
 C         -5.8515719117       -1.4514808793       -2.2716150301
 C         -6.6050550059       -2.3075174486       -3.0472270379
 C         -6.9081726511       -3.5844191021       -2.5937023916
 C         -6.4507363383       -3.9998944291       -1.3505058091
 C         -5.6990853439       -3.1523447200       -0.5635834776
 H         -0.8890188186        4.9508743583       -1.5159655750
 H         -1.0648991568        6.8380007493        0.0903928463
 H         -0.1373013914        6.5926364472        2.3643221807
 H          0.9613957279        4.4890921073        3.0288115726
 H          1.1252283807        2.6192375067        1.4280059070
 H          2.6729784553        2.0585521968       -2.5490500428
 H          4.6814202540        0.6633266235       -2.0695020203
 H          0.5341023573        0.2704406973        0.6941508397
 H          1.0723081630       -1.6559144848        2.6120947317
 H          2.1279989297       -3.3695212287        4.0457184152
 H          4.4491524291       -4.0687714454        3.6782080258
 H          5.7901537271       -3.0970757090        1.8434659700
 H          6.4209673656        0.7779262175       -0.4282083259
 H          8.6753842166        0.4809053782       -1.3749885106
 H          9.5211273067       -1.7848728653       -1.8752164384
 H          8.0924531101       -3.7523045458       -1.4427468387
 H          5.8214991093       -3.4555050498       -0.5354906830
 H         -1.3060819216        0.6043373348       -3.0188718063
 H         -3.2853894592       -0.8788572554       -2.7172086372
 H         -1.5529560408        1.9272779174        1.0432058014
 H         -3.1507793649        1.3371536828        3.2338683229
 H         -4.9118560539        0.4866768023        4.7446486709
 H         -6.6201281610       -1.0765382418        3.9396456213
 H         -6.6131641563       -1.8641855451        1.5958133319
 H         -5.6399550113       -0.4470516625       -2.6058704990
 H         -6.9674775038       -1.9761204040       -4.0087407413
 H         -7.4967145819       -4.2506687406       -3.2048601902
 H         -6.6756912787       -4.9953316038       -0.9981149978
 H         -5.3132963658       -3.4827081364        0.3891553519
