45
 energy: -74.810684153834 gnorm: 0.000128661082 xtb: 6.7.1 (edcfbbe)
C           -4.77535948382534        3.51025570738543        0.42220903482414
C           -3.39226563527130        3.55320210452848        0.48413223334213
C           -2.64736764953816        2.39564904729087        0.36112784541396
C           -3.27235573852476        1.16501347865738        0.15554894513069
C           -4.67730329675283        1.12776059712439        0.14514708385294
C           -5.41652667813392        2.29312001056415        0.26745115015047
O           -5.37415392749966       -0.04178863758413        0.04401310242028
C           -4.65887558399871       -1.19923042173443       -0.06773464061278
C           -5.37989157879044       -2.37721037277939       -0.17728189297197
C           -4.72051923477346       -3.58326828033290       -0.34187813527610
C           -3.33807435606605       -3.60252953508194       -0.42604238812910
C           -2.61117066129072       -2.43227161595387       -0.31597872834413
C           -3.25386686128940       -1.21234903138346       -0.10140891282316
N           -2.55289395574051       -0.01736326380818        0.02012751118112
C           -1.15094546216849       -0.00489565305021        0.00652153463811
C           -0.41865286831541       -0.76119497653826        0.95098887742234
C            0.93952238260878       -0.73782534108979        0.95294475736858
C            1.66689434501543        0.02338246547776       -0.02194145243161
C            3.04899042089849        0.01855420554950       -0.01127860436060
N            3.81494082623484       -0.64852571030735        0.85006666812447
C            5.10770623603577       -0.47758939975478        0.62988775311200
C            6.15545684913693       -1.05489372408694        1.37748761673698
C            7.45475059253416       -0.78561332940553        1.03218687470925
C            7.76658702081833        0.05052613773586       -0.04680730414452
C            6.76307303822358        0.63771901780969       -0.80409715132894
C            5.45143909985987        0.37865714633808       -0.47348800927927
S            4.01300730184625        0.97160200491254       -1.23156556568582
C            0.90667986244105        0.76810174319488       -0.97938575810035
C           -0.45275408095043        0.76453673093630       -0.95074386458988
H           -5.35589061231064        4.41429694601741        0.51338087886709
H           -2.88511628403741        4.49282510133785        0.63736302936421
H           -1.57301291322431        2.43649503822136        0.43684653013516
H           -6.49189209428551        2.21970977732984        0.24723969302325
H           -6.45588485864234       -2.32221623539653       -0.13950809588645
H           -5.28687182118384       -4.49719775489073       -0.42313763554608
H           -2.81737493433181       -4.53346818809192       -0.58661130546353
H           -1.53761187217487       -2.45500972115848       -0.40849270243673
H           -0.96072974940032       -1.31938996109880        1.70130190354770
H            1.51180268761076       -1.27723977213545        1.68953502377217
H            5.90578817270907       -1.69716946729197        2.20666280069729
H            8.26057384770476       -1.22569634465028        1.60181874633381
H            8.79988224318782        0.24155986142392       -0.29316065387898
H            7.00133044068548        1.28338936222533       -1.63559732678182
H            1.43744932479339        1.32586325459251       -1.73582190538943
H           -1.01897710860149        1.31265835463481       -1.69056333649427
