45
 energy: -74.887675155173 gnorm: 0.000042145768 xtb: 6.7.1 (edcfbbe)
C           -4.77527034899656        3.51361106614257        0.46532804291448
C           -3.39647225545477        3.55987409617641        0.49871811922408
C           -2.65176460839493        2.39920033626903        0.35421524297266
C           -3.27460602870979        1.17242374900642        0.16101948545143
C           -4.67534028519425        1.13173731276081        0.16700830857039
C           -5.41331205192779        2.29220468298706        0.30909463487280
O           -5.37959344981599       -0.04061659739804        0.05410171210260
C           -4.65966605542091       -1.20139055305786       -0.07842196628967
C           -5.38208725576280       -2.37396599193869       -0.19949304209406
C           -4.72847142683432       -3.58467107588247       -0.37361627007602
C           -3.35055820637400       -3.60815926720582       -0.44584012987622
C           -2.62130667821624       -2.43532212359147       -0.32227018083333
C           -3.25889023678411       -1.21902817580548       -0.11163217601557
N           -2.55500451367495       -0.01741124642965        0.01422757192446
C           -1.14742761263558       -0.00694651808957       -0.00001057727798
C           -0.42895060234852       -0.69616844413987        0.97699232087494
C            0.94787173463907       -0.68586766042244        0.96272079651723
C            1.64083237071723        0.01670523891311       -0.02829045751852
C            3.08314246362323        0.01239332847714       -0.01750427757288
N            3.80057099024982       -0.61998585004969        0.83813171239906
C            5.13294107685587       -0.46103119450703        0.62984889558159
C            6.15394691454609       -1.02423137299744        1.39246376301803
C            7.46217851062687       -0.76397586397625        1.04783740771384
C            7.77299894964988        0.04702068734483       -0.04284623749803
C            6.77913820354074        0.61654202041453       -0.81431391838431
C            5.46226096224534        0.35999837266767       -0.47436054061042
S            4.00937310101175        0.92211666604883       -1.23712708359042
C            0.91759462541470        0.70497151360528       -1.00330780377371
C           -0.46053275532312        0.69261602855183       -0.99084714134789
H           -5.35918754410913        4.41405310460053        0.57203566932612
H           -2.88454036826959        4.49900904603878        0.64173906799543
H           -1.57535864385915        2.44905145300551        0.40207726307444
H           -6.48888326619206        2.21646938292721        0.30094816857620
H           -6.45809778250180       -2.31609579417582       -0.16074027414730
H           -5.30018608054803       -4.49472176463492       -0.46365434377192
H           -2.82741459723507       -4.53878000642167       -0.60309100133615
H           -1.54593132221115       -2.46743442575728       -0.39953297030844
H           -0.96315606944527       -1.22995405373617        1.74903057139474
H            1.51492596650686       -1.20858402055068        1.71629513839174
H            5.90045918351031       -1.64972783940987        2.23327258129778
H            8.26307568918712       -1.19399297221530        1.63040248978179
H            8.80733901760302        0.23357532879024       -0.28934663391731
H            7.01611946456045        1.24457249578866       -1.65902522101412
H            1.44415529898144        1.24333509316162       -1.77793857315452
H           -1.01737752512352        1.21748252822907       -1.75286153047817
