  75
       -110.03166088
 C         -5.6298858452       -2.6351966519       -0.5197191178
 C         -4.3878821145       -2.7366742317        0.3556086214
 C         -3.5936520264       -4.0038298612        0.0508028455
 C         -2.4096689984       -4.2014992646        1.0063210301
 C         -1.3865096134       -3.1166278274        0.8452087278
 C         -0.4816906833       -3.1567925256       -0.2091615735
 C          0.4443238095       -2.1500189108       -0.3920379123
 C          0.4830000700       -1.0784677300        0.4933530162
 N          1.4083263489       -0.0374750235        0.3094062193
 C          1.1319114620        1.3063185630        0.3129401078
 C         -0.1982176900        1.8564400918        0.5480666495
 C         -0.3428952820        2.8032987201        1.5592604778
 C         -1.5857003086        3.2852580895        1.9096939709
 C         -2.7355211894        2.8308637302        1.2598362530
 C         -4.0387427406        3.2726443963        1.6303726344
 C         -5.1401102242        2.8416182539        0.9730708831
 C         -5.0370129556        1.9392060784       -0.1260599208
 C         -6.1570374247        1.5051539693       -0.8373246563
 C         -6.0216728668        0.6504189193       -1.9156933457
 C         -4.7725783161        0.2033527716       -2.3055731199
 C         -3.6266492071        0.6003543637       -1.6154766815
 C         -2.3209622856        0.1847855564       -2.0057142619
 C         -1.2212618795        0.5890318769       -1.3293062350
 C         -1.3207226820        1.4386681249       -0.1884149564
 C         -2.6016235034        1.9129595230        0.1885279367
 C         -3.7534445103        1.4804906445       -0.5131302181
 N          2.2150187170        2.0124918000        0.1206322500
 C          3.2446428551        1.1301771927       -0.0242766078
 C          4.6045778527        1.6066715448       -0.2264027530
 C          5.7134968891        0.8759231015        0.1959302432
 C          6.9892530615        1.3633438040       -0.0160944789
 C          7.1780434435        2.5846705471       -0.6421482132
 C          6.0795511165        3.3264713002       -1.0454389982
 C          4.8021626768        2.8441868794       -0.8372677391
 C          2.7612472247       -0.1636544808        0.0853970719
 C          3.4342688329       -1.4531817080        0.0159807227
 C          3.2055327593       -2.4309235125        0.9828082949
 C          3.8468346594       -3.6528373126        0.9038668524
 C          4.7229437582       -3.9156222993       -0.1358663932
 C          4.9591243944       -2.9468185893       -1.0982999058
 C          4.3193243526       -1.7245733817       -1.0267795335
 C         -0.4099707789       -1.0301218236        1.5564625785
 C         -1.3371870248       -2.0405335192        1.7215787882
 H         -6.2876809178       -3.4857287707       -0.3520093158
 H         -5.3518163848       -2.6190987758       -1.5705846019
 H         -6.1784083246       -1.7231015146       -0.2988875834
 H         -3.7560236094       -1.8615101437        0.1938707319
 H         -4.6884855582       -2.7428119639        1.4056714583
 H         -4.2552763706       -4.8694016043        0.1315050378
 H         -3.2245209569       -3.9582199870       -0.9756310384
 H         -1.9484686424       -5.1694207988        0.7975185319
 H         -2.7786273551       -4.2133621758        2.0333580670
 H         -0.5039573235       -3.9884865454       -0.8982151151
 H          1.1370009427       -2.1888038265       -1.2192259466
 H          0.5423094628        3.1394867896        2.0779597162
 H         -1.6801938174        4.0097074945        2.7056935012
 H         -4.1237067503        3.9667807356        2.4545587708
 H         -6.1245409208        3.1820538499        1.2615920893
 H         -7.1364924424        1.8513592997       -0.5394249800
 H         -6.8986652532        0.3320151924       -2.4605383835
 H         -4.6730965868       -0.4556787805       -3.1561949329
 H         -2.2277247218       -0.4543865355       -2.8724113134
 H         -0.2407691390        0.2978649218       -1.6726336821
 H          5.5750557214       -0.0679248793        0.7011679751
 H          7.8426528080        0.7881946508        0.3136714841
 H          8.1774731989        2.9592537583       -0.8084672558
 H          6.2216280661        4.2841748025       -1.5251145520
 H          3.9366665131        3.4124301324       -1.1406747669
 H          2.5333326033       -2.2273517296        1.8038213918
 H          3.6642958071       -4.4016586088        1.6606621342
 H          5.2236562808       -4.8704552163       -0.1940212586
 H          5.6435522733       -3.1463095405       -1.9097051483
 H          4.4997838967       -0.9677409690       -1.7758859651
 H         -0.3740032657       -0.2032128333        2.2495472334
 H         -2.0292075268       -1.9938299928        2.5494257762
