  90
       -140.44517306
 C         -6.4585200096       -4.5859115749        0.9518810819
 C         -5.7700380999       -3.7908492564        0.0506388568
 C         -6.2150463971       -2.5139558633       -0.2360811884
 C         -7.3562718701       -2.0148250841        0.3894306849
 C         -7.8677424269       -0.6791421048        0.1177036647
 N         -9.1403169041       -0.3948837127        0.0713769287
 C         -9.2249190659        0.9302323792       -0.2541119581
 C        -10.3373632179        1.7459491045       -0.4306105828
 C        -10.1162751901        3.0698542987       -0.7446755292
 C         -8.8256847348        3.5875463740       -0.8751608905
 C         -7.7070913092        2.7963775444       -0.7063406046
 C         -7.9220468604        1.4604828316       -0.4089178019
 N         -7.0662018841        0.4106616096       -0.1631317644
 C         -5.6664970999        0.4814766599       -0.1062934649
 C         -4.9909280300        0.0260867017        1.0222821141
 C         -3.6118843604        0.0615316306        1.0585333455
 C         -2.8849305514        0.5637119122       -0.0180610346
 C         -1.4083720662        0.5661810204        0.0079767157
 C         -0.7097533719        1.7810482509        0.0433644341
 C         -1.3831915492        3.0295485745        0.1054522647
 C         -0.6953291572        4.2034113505        0.1062971111
 C          0.7120538660        4.2019258313        0.0373797265
 C          1.3964194777        3.0263803053        0.0053176405
 C          0.7195729641        1.7785136241        0.0339748916
 C          1.4137345119        0.5602203440        0.0329942688
 C          2.8899718764        0.5524581438        0.0519226519
 C          3.6079452468        0.0582376274       -1.0345144149
 C          4.9869696817        0.0217538334       -1.0096638439
 C          5.6721528873        0.4712000892        0.1154423762
 N          7.0727522907        0.4023849100        0.1549463382
 C          7.8690674420       -0.6876613107       -0.1386226606
 C          7.3480416050       -2.0240625707       -0.3873418085
 C          8.0218803244       -2.8478343354       -1.2876186774
 C          7.5579378768       -4.1228614798       -1.5469888080
 C          6.4216833721       -4.5935703097       -0.9086263593
 C          5.7627360679       -3.7896568459        0.0067052708
 C          6.2220156954       -2.5133916037        0.2726496694
 N          9.1418209439       -0.4010882733       -0.1263586480
 C          9.2316785156        0.9268012922        0.1868625308
 C         10.3459117303        1.7471254109        0.3269602371
 C         10.1293043745        3.0728951633        0.6362150087
 C          8.8413147728        3.5882129310        0.7977875846
 C          7.7209331533        2.7927193351        0.6651766696
 C          7.9319829092        1.4556546344        0.3708366503
 C          4.9660628776        0.9849646216        1.1976831428
 C          3.5855644994        1.0249339927        1.1611637089
 C          0.7148256937       -0.6562273135        0.0185069997
 C          1.3861879306       -1.9072917239        0.0519404513
 C          0.6973255354       -3.0797447084        0.0050742986
 C         -0.7088521841       -3.0752113453       -0.0816158097
 C         -1.3921379232       -1.8986834811       -0.0876094825
 C         -0.7144904127       -0.6527221379       -0.0145591390
 C         -3.5709305328        1.0454634171       -1.1291439702
 C         -4.9508032160        1.0035565609       -1.1784759359
 C         -8.0593990026       -2.8299810006        1.2751983867
 C         -7.6100436240       -4.1058572002        1.5549133519
 H         -6.1052090248       -5.5819672761        1.1736741207
 H         -4.8832490119       -4.1689485416       -0.4371116633
 H         -5.6858270122       -1.9149074596       -0.9626647050
 H        -11.3315216915        1.3444508456       -0.3188214749
 H        -10.9585784505        3.7302396433       -0.8891684255
 H         -8.7009872623        4.6339048834       -1.1117608999
 H         -6.7103956332        3.2027549515       -0.7961209405
 H         -5.5518898154       -0.3639062942        1.8585240893
 H         -3.0865948043       -0.2979062273        1.9311176247
 H         -2.4617939522        3.0315466895        0.1563278489
 H         -1.2218130378        5.1451163178        0.1558215599
 H          1.2416302277        5.1428372447        0.0133683731
 H          2.4748514954        3.0273803731       -0.0483217726
 H          3.0753836900       -0.2929530125       -1.9060314870
 H          5.5413224526       -0.3624891086       -1.8529529216
 H          8.9067153572       -2.4665917578       -1.7728220141
 H          8.0822509249       -4.7529426930       -2.2501631565
 H          6.0561012644       -5.5884674688       -1.1158657686
 H          4.8884067482       -4.1602758481        0.5219521003
 H          5.7157906293       -1.9067709023        1.0092451225
 H         11.3379465943        1.3481476982        0.1902016998
 H         10.9732304134        3.7369742233        0.7514366778
 H          8.7201743163        4.6356431905        1.0315843805
 H          6.7256223626        3.1957628393        0.7814707117
 H          5.5018759323        1.3282619322        2.0703963159
 H          3.0353657273        1.4073063955        2.0085948498
 H          2.4641276220       -1.9151200130        0.1157968586
 H          1.2230789028       -4.0228921443        0.0283845396
 H         -1.2386805372       -4.0146523144       -0.1392602133
 H         -2.4702758512       -1.8985761964       -0.1487588049
 H         -3.0135675901        1.4372134411       -1.9675334539
 H         -5.4788612221        1.3517512408       -2.0538709486
 H         -8.9560329184       -2.4415690219        1.7322396348
 H         -8.1577576558       -4.7290826114        2.2462465538
