90
 energy: -140.445293190655 gnorm: 0.000030789200 xtb: 6.7.1 (edcfbbe)
C           -6.39756265208538       -4.56917124690490        0.99995545742446
C           -5.73397877018709       -3.78086281372590        0.07441464315910
C           -6.19828239037658       -2.51357322991591       -0.22373237943038
C           -7.33395567889999       -2.01730296079267        0.41418344127846
C           -7.86060154257030       -0.68957628527404        0.13222214218556
N           -9.13516900718483       -0.41376802256609        0.09539937559303
C           -9.23084500231279        0.90714757629092       -0.24449196268062
C          -10.34967669473769        1.71454534577064       -0.41850618040389
C          -10.13954784808024        3.03574670676855       -0.75093917238211
C           -8.85351334546674        3.55904559074072       -0.90193098010123
C           -7.72864504963344        2.77630278755942       -0.73553679636974
C           -7.93279068590253        1.44321548020942       -0.41885986958774
N           -7.06845927930090        0.40140452282463       -0.16957242970758
C           -5.66888797738906        0.47929912174121       -0.11885822828646
C           -4.98936506955720        0.04167036879071        1.01435722630714
C           -3.61050314325516        0.08096143417659        1.04671559296500
C           -2.88759572704907        0.56899308445224       -0.03903283751335
C           -1.41109161298902        0.57522384735154       -0.01495868567924
C           -0.71532361357087        1.79218761666027        0.00192766949005
C           -1.39122824586168        3.04020838769136        0.04284220620855
C           -0.70531184279085        4.21521613286942        0.03121964563125
C            0.70255447693792        4.21570476837229       -0.02836946346432
C            1.38919420675104        3.04113581613111       -0.04141540602124
C            0.71402570692886        1.79266184409439       -0.00230209255153
C            1.41058792421489        0.57616631639471        0.01294223516578
C            2.88710642588294        0.57049877272253        0.03763186430203
C            3.61067351195644        0.08510473716591       -1.04885458405790
C            4.98947252141028        0.04477029972351       -1.01533253172693
C            5.66825962824658        0.47858392115870        0.11980510358210
N            7.06765001078270        0.39851072174250        0.17186005196463
C            7.85831865015238       -0.69268399705923       -0.13309148187547
C            7.33007543199860       -2.01898688392747       -0.41876644150685
C            8.00803659371220       -2.82646720283956       -1.33057293899577
C            7.53823307753633       -4.09186174512240       -1.62446263111005
C            6.39173677604278       -4.56898432441661       -1.00965398424853
C            5.72837399444314       -3.78177287057761       -0.08302063318655
C            6.19362975474661       -2.51543259606118        0.21764192795133
N            9.13328422167168       -0.41899971897439       -0.09443052689203
C            9.23078447197895        0.90055490152344        0.25016721295382
C           10.35081250721336        1.70541656396398        0.42814114306386
C           10.14261066553616        3.02562536165562        0.76568213620765
C            8.85731635907974        3.55041837143254        0.91775197221578
C            7.73128026131233        2.77022158053979        0.74731034246651
C            7.93345120790241        1.43804536985451        0.42556657572982
C            4.95626070575981        0.98516251467014        1.20163512454403
C            3.57629398877701        1.03167232877678        1.15535863899274
C            0.71484207725384       -0.64195538562631        0.01334928631068
C            1.39012923902513       -1.89045884568092        0.06134044284190
C            0.70433861799839       -3.06532464983220        0.03592568023009
C           -0.70233107533073       -3.06575211261699       -0.04339383044116
C           -1.38893437794936       -1.89131971164027       -0.06711758301406
C           -0.71451845671955       -0.64242231780639       -0.01721619861656
C           -3.57748544242525        1.03328200477888       -1.15504948788255
C           -4.95751905655094        0.98793572002761       -1.20013959679825
C           -8.01231218525493       -2.82593936518034        1.32466937201492
C           -7.54347885603682       -4.09227681204645        1.61602342438459
H           -6.02800532838815       -5.55700619281812        1.23237539411191
H           -4.85210035160940       -4.15699370841783       -0.42366674617057
H           -5.68861426159353       -1.91982605055606       -0.96841867751279
H          -11.34027103681245        1.30916760577066       -0.29045372445470
H          -10.98715611502021        3.68969551498179       -0.89373566305582
H           -8.73742615163031        4.60284170006579       -1.15379821716846
H           -6.73526465964273        3.18655195250728       -0.84255074189464
H           -5.54752663621727       -0.33690541420919        1.85766974052873
H           -3.08207995569390       -0.26375251867204        1.92332010701085
H           -2.47007239978487        3.04119088166238        0.08839103039751
H           -1.23388254145817        5.15648985897160        0.06329549440914
H            1.23050811954807        5.15736292173848       -0.05923389069005
H            2.46805122098251        3.04275821470072       -0.08678290913590
H            3.08280759155983       -0.25702412777973       -1.92680706795980
H            5.54812593558640       -0.33197467202019       -1.85913945548237
H            8.90104744716721       -2.44069533546896       -1.79689133141582
H            8.06633904349621       -4.70945891233074       -2.33584656437469
H            6.02156386255352       -5.55616403964209       -1.24387545132003
H            4.84602159442371       -4.15810041481580        0.41407308365513
H            5.68416455098126       -1.92263482230945        0.96322444418237
H           11.34082596037528        1.29886594312574        0.29931835335946
H           10.99118575128083        3.67756878213891        0.91186011517287
H            8.74274592199187        4.59335768832904        1.17382431319833
H            6.73851952157916        3.18173641204554        0.85517239440924
H            5.48686266527658        1.31755240739151        2.08161553185024
H            3.02136127609677        1.40947841495017        2.00174156604876
H            2.46842948696025       -1.89387910481115        0.11959794448096
H            1.23258419518398       -4.00669582145439        0.07188467080812
H           -1.22991123549587       -4.00744193542076       -0.08075115888154
H           -2.46722871419460       -1.89538281838127       -0.12546215294786
H           -3.02306470160116        1.41282022069816       -2.00099228222633
H           -5.48873235442772        1.32308910486432       -2.07870621587497
H           -8.90479679422346       -2.44024201391507        1.79205629955622
H           -8.07181825077267       -4.71073417895398        2.32648511042195
