90
 energy: -140.444211838026 gnorm: 0.000045138606 xtb: 6.7.1 (edcfbbe)
C           -6.63089515713876       -4.62052743955598       -0.47262784914406
C           -5.92954592052943       -3.75989490378246        0.35546664644796
C           -6.33066529425316       -2.44461370244471        0.49572640745378
C           -7.44019779636343       -1.97382485228285       -0.20416086170782
C           -7.90743874028184       -0.60073576227290       -0.08273794702855
N           -9.16931440711749       -0.26927882926966       -0.10638150452884
C           -9.21338253392097        1.08343531044777        0.08548806321238
C          -10.29888042983080        1.95085384876395        0.14388241756501
C          -10.03730890367145        3.29054996740313        0.33583743549226
C           -8.73256474574519        3.77312111641976        0.46003929467638
C           -7.64016120613840        2.93076595855140        0.40668395572057
C           -7.89662154730862        1.58066797425346        0.23162015608431
N           -7.07399652596533        0.48253331126296        0.11817129601266
C           -5.67117836586089        0.50544083855945        0.08776933755050
C           -4.96182317387663        1.09960535512591        1.12590330112960
C           -3.58038835700111        1.10678006553555        1.09853564036260
C           -2.88975557615141        0.52779359380867        0.03914427178908
C           -1.40987655324599        0.51961031031356        0.02816536533386
C           -0.71228624285061        1.44475468025582       -0.75825674378844
C           -1.38749987931469        2.40777809980035       -1.55337322213358
C           -0.69770766089375        3.30957554495985       -2.30310764193435
C            0.71196821697861        3.30937557243744       -2.29837253188289
C            1.39703689121522        2.40667610180457       -1.54527964587100
C            0.71707575495546        1.44283582705050       -0.75518019013630
C            1.40874473126582        0.51470094229263        0.03359689801468
C            2.88814153517481        0.51854839779027        0.05024474160649
C            3.60946167959998       -0.01756708181909       -1.01229095155099
C            4.98968703933325       -0.02977981253081       -0.99011633255830
C            5.66988131306210        0.49364203210861        0.10544580270600
N            7.07264410494149        0.47230342533766        0.13788761830553
C            7.90977884437563       -0.59919188186428       -0.10617073640619
C            7.44706786744532       -1.96719436579757       -0.28746765410737
C            8.16807831878150       -2.80751125264118       -1.13466879050157
C            7.76684570790077       -4.11530303268952       -1.32578001682881
C            6.64670824869512       -4.60234676776976       -0.67129076712570
C            5.94037042679041       -3.78001477801616        0.19078556980258
C            6.33698960976859       -2.47072806059235        0.38830776026671
N            9.17076441892561       -0.26355843468741       -0.11191841929973
C            9.21042743743748        1.07996084583996        0.13702068018069
C           10.29326189401402        1.94712648726849        0.23520642305514
C           10.02727778415324        3.27688333790214        0.48229517049217
C            8.72077602270562        3.75027645720151        0.62230322253491
C            7.63097397290209        2.90788508723292        0.53035049376553
C            7.89183900440156        1.56696676893684        0.29993386155429
C            4.95759144330659        1.04421899059876        1.16542613985229
C            3.57630301708924        1.05263150484420        1.13473294536637
C            0.71072535466037       -0.41787421427770        0.81201986039058
C            1.38418556273965       -1.39034503947880        1.59725791624325
C            0.69344441773701       -2.29669635539132        2.34064098559087
C           -0.71620224273607       -2.29221413835478        2.33981631296629
C           -1.39981600262277       -1.38214410090186        1.59450251009949
C           -0.71847891131259       -0.41491643415226        0.80958260257306
C           -3.60792192391926       -0.05079573679937       -1.00285519034179
C           -4.98821757864357       -0.06172433271524       -0.98403172322600
C           -8.15617510758002       -2.85182669780054       -1.01668745761619
C           -7.75053662784762       -4.16537183449260       -1.15049268161865
H           -6.31081547341326       -5.64626764660305       -0.58119667644919
H           -5.06702694983517       -4.11607489262417        0.89976945284365
H           -5.79257224438165       -1.79093246328683        1.16635436799401
H          -11.30363159709163        1.57529817530468        0.03687674930801
H          -10.85791023561993        3.99094480636728        0.38640091227943
H           -8.57551412195728        4.83245493068170        0.59993837585104
H           -6.63194460358418        3.30859600492478        0.49263125836159
H           -5.49641800767974        1.53475182750898        1.95734097413649
H           -3.02678220397567        1.55937285124398        1.90821278456776
H           -2.46764604798071        2.41210923177821       -1.54907006693291
H           -1.22395334093807        4.03663662105283       -2.90381828975081
H            1.24233122799488        4.03673740718487       -2.89509848167947
H            2.47708311691995        2.41166535050674       -1.53464145110573
H            3.07971775072876       -0.42830274713118       -1.85910338535322
H            5.54828806285811       -0.44870196036357       -1.81387904642512
H            9.04014372053457       -2.41282925701123       -1.63205676895573
H            8.32805643094537       -4.75854861665751       -1.98735423934648
H            6.33007170287855       -5.62343274003865       -0.82460931689422
H            5.07742452735383       -4.16167828803380        0.71682043808945
H            5.79483726022127       -1.84785761916016        1.08449740842482
H           11.29940770267883        1.57914294988732        0.11573243519290
H           10.84570557632929        3.97678727669198        0.56479297505854
H            8.56021906404700        4.80242357067335        0.80569687946002
H            6.62142475740426        3.27909562554092        0.62860926113225
H            5.48992518120132        1.44498214516311        2.01539368218861
H            3.02067040352243        1.47221847404428        1.96065878656875
H            2.46419374358077       -1.40130230761011        1.58757636600036
H            1.21878271898350       -3.03134957399113        2.93298744316366
H           -1.24696993385903       -3.02303096528234        2.93206074831159
H           -2.47990135311470       -1.38547029590224        1.58272035789509
H           -3.07580612306230       -0.49544309246394       -1.83081741932047
H           -5.54475360363804       -0.51376422223347       -1.79151824108296
H           -9.02792029056283       -2.48147346647649       -1.53298827673780
H           -8.30793402570283       -4.83807400538576       -1.78545924163275
