59
 energy: -85.274137543401 gnorm: 0.000195291518 xtb: 6.7.1 (edcfbbe)
Br           2.15474740601497        4.35647926283381        0.23922664226039
C            0.72802352472354        4.53704687818117       -1.09394690204518
C            1.19911860450966        4.18928201508697       -2.49399366520878
C            1.75212526033471        2.77132036052212       -2.64373293128362
C            0.74879232751026        1.68376876215944       -2.26573761045822
C            1.31720456973261        0.28996840573278       -2.52317187612753
C            0.39329162350049       -0.85293300070302       -2.09391029373012
C            0.33103015192590       -1.12632771148097       -0.57473615445664
C           -0.45258703118109       -2.43500383750316       -0.34732247054204
C           -0.58728874997920       -2.80463329964499        1.12922163710490
C           -1.45692458192823       -4.04372966378918        1.36186526966066
C           -2.87997048665313       -3.94561692887830        0.80718904094237
C           -3.68476111396868       -2.78593008332480        1.39216602504553
C           -5.01223801024400       -2.58754663980204        0.68534794577901
Br          -4.74606079511667       -1.96784673552195       -1.15845232659495
C            1.70662781041383       -1.17698648377042        0.04425778276739
C            2.75190987535016       -2.02383709224529       -0.25700610545378
C            3.93810739169911       -1.85969235193743        0.44437075355180
Br           5.41421136521921       -3.02204839941424        0.04404330146203
C            4.09801234602873       -0.88553502216811        1.41716269111644
C            3.04346489435733       -0.03962575686456        1.71943104197531
C            1.84897588380718       -0.19092356323329        1.03381207573983
C            0.59501972648115        0.53513597743542        1.13933022407884
C            0.21910743724152        1.58227795539472        1.96518201031199
C           -1.06585164697191        2.08970605762232        1.85672980497993
C           -1.94540938445927        1.54243527056282        0.93508255210072
Br          -3.72705044722525        2.26191243100521        0.81535061481771
C           -1.58872388258968        0.49561105828820        0.09598387657161
C           -0.30446118755286        0.00224723557511        0.20038026119151
H           -0.07200100761159        3.88261732636018       -0.75479062498656
H            0.40272149988294        5.57501489429082       -1.03404050614377
H            0.33884547135910        4.31710775736792       -3.15767575071804
H            1.96831668754763        4.90236092982514       -2.80257018571676
H            2.64455544126710        2.66365487028869       -2.02136478615901
H            2.06070939115027        2.63427202796761       -3.68283699315364
H           -0.17093019181797        1.81399477561576       -2.84224752423966
H            0.50205807712421        1.77537964231190       -1.20950881365277
H            2.27793218731507        0.19534389743345       -2.01219761416515
H            1.50617140641611        0.18635002940244       -3.59494757597381
H           -0.61851990556494       -0.65663466231532       -2.45355580776897
H            0.74217260764949       -1.76886730373607       -2.57484117426675
H           -1.43875282774845       -2.30229250236372       -0.79111183056738
H            0.04808293469334       -3.24760531646279       -0.87635165486440
H            0.40524616425536       -3.00253982637509        1.54168058244715
H           -0.99680148861359       -1.95864527274536        1.68399718508150
H           -1.50564206596622       -4.23110500752227        2.43747596506585
H           -0.97286336513718       -4.90715824174216        0.89937752418488
H           -3.39992295089608       -4.88327399160118        1.02194173972911
H           -2.83502070338750       -3.84411189430858       -0.27857669302337
H           -3.11084948155207       -1.86047664949532        1.32765580145839
H           -3.89346155011042       -2.97690091772920        2.44842835139810
H           -5.58051831786417       -3.51365200066888        0.60856302083741
H           -5.61607888712168       -1.81765557929918        1.16424308458784
H            2.66383902254512       -2.78813995241489       -1.01342030294887
H            5.04102368535028       -0.78871077975906        1.93302032110404
H            3.16170843313917        0.72514517901650        2.47094995315729
H            0.90906148982983        2.00634035294564        2.67735250672255
H           -1.38356747124957        2.90724969431886        2.48595045180074
H           -2.29518226540074        0.09561283612108       -0.61517567412713
