59
 energy: -85.267769686487 gnorm: 0.000197477131 xtb: 6.7.1 (edcfbbe)
Br          -6.55240301987414       -0.31851390255962        2.26590865989259
C           -6.85440649135609       -1.13642047203813        0.49664522269150
C           -5.85829403043379       -2.23542714279449        0.16109789547861
C           -4.55984693179752       -1.74303011349692       -0.48130748486288
C           -3.69322969743264       -0.88188247019865        0.43591041859651
C           -2.33424774736507       -0.58333820081431       -0.19725368267241
C           -1.50500758500647        0.32036132454825        0.71060910785527
C           -0.06424588813578        0.63261197929647        0.23616758330540
C            0.80748047069340       -0.63124247719074        0.20174663964707
C            2.27111563399935       -0.32923045944914       -0.11675190672513
C            3.10145521629863       -1.60802865120890       -0.20991853021691
C            4.56919269113889       -1.29859152553384       -0.49994719435202
C            5.42198656014467       -2.54205444099710       -0.75438713298903
C            5.56149965239424       -3.46312865461197        0.44322118448456
Br           6.47089623966919       -2.58382451811823        1.95540470703178
C           -0.05564705318509        1.37299265584930       -1.08149227252224
C           -0.35061124540791        0.90121153450057       -2.34366876089983
C           -0.28281615931763        1.79412860108138       -3.40433767117920
Br          -0.69589428377731        1.15790571078816       -5.16933698148308
C            0.07408670887961        3.12215598699955       -3.23746966233470
C            0.39979727299572        3.58552852693611       -1.97346493420284
C            0.34057410870073        2.70908569353363       -0.90158276786529
C            0.67360197818691        2.90575041754079        0.49859741800572
C            1.13160129060277        4.02627964059455        1.17365666366178
C            1.40130527134189        3.92694033560238        2.52840949375915
C            1.20792632253402        2.71811326041902        3.17839320608199
Br           1.58881211341800        2.60466098812292        5.05670711475788
C            0.74581285522770        1.58649631993755        2.52112197011809
C            0.48305453423156        1.68936716284095        1.17171020075083
H           -7.86953951228449       -1.52664357835163        0.55052262178867
H           -6.81293833480652       -0.31768915416782       -0.21987044996264
H           -5.63006556122082       -2.81560414976041        1.05799055835864
H           -6.35265075906402       -2.90748850344813       -0.54634828148969
H           -4.79891520992275       -1.18047947955262       -1.38760757247234
H           -3.98513695495620       -2.62210470881473       -0.78347870900164
H           -3.54499912891074       -1.39855906350415        1.38717735574493
H           -4.19464879857526        0.06363474450980        0.64742331213130
H           -2.49513847470540       -0.09318971366163       -1.15848563592374
H           -1.81176538126988       -1.52458764269874       -0.37361511579673
H           -2.03277365420191        1.27046596026382        0.83166142118589
H           -1.43439097431020       -0.14118862500241        1.69781050000111
H            0.74293000201031       -1.13064408285969        1.17025935640893
H            0.41579526882330       -1.31258743472725       -0.55433309928674
H            2.33359458180449        0.21228861834575       -1.06377375403542
H            2.69023572960675        0.31601890026402        0.65871310374452
H            2.70114441010046       -2.24292512252297       -1.00458191873568
H            3.01210224868559       -2.15154111198442        0.73266638946767
H            4.99201271212573       -0.73293302476698        0.33392792781807
H            4.62580611642723       -0.66212828645077       -1.38632561621718
H            6.41671068129367       -2.22804852384271       -1.08070655734473
H            4.97584910306731       -3.13009293034143       -1.56157012947771
H            4.59777256840454       -3.78803448885176        0.82858286383482
H            6.17443773941555       -4.33123742056501        0.20492068143543
H           -0.61358040985816       -0.12934178885002       -2.52059924579272
H            0.10928795089217        3.78363340016793       -4.08965106556615
H            0.69930066729571        4.61287397342879       -1.83619085153897
H            1.27917990389377        4.96445348507469        0.66173677965645
H            1.75995221368914        4.78270211256789        3.07957353565575
H            0.60688046917936        0.66209953056869        3.05978509160108
