59
 energy: -85.170171260235 gnorm: 0.000095982770 xtb: 6.7.1 (edcfbbe)
Br           2.33346677012758        4.35842914807416        0.22317750380067
C            0.82747288465976        4.50307725036252       -1.02463342471135
C            1.23019368443097        4.17326240583060       -2.45003979146282
C            1.77764869917031        2.75816865937969       -2.64101445545352
C            0.78013004673332        1.66808099936233       -2.25656442032072
C            1.32102031571733        0.27439943225396       -2.56169310500927
C            0.37633755783552       -0.85864027570303       -2.15454085733370
C            0.30730894657223       -1.13840081962777       -0.63536560783213
C           -0.49605000366316       -2.43538303070000       -0.40995597609445
C           -0.62036578729908       -2.79810662344736        1.06889944985595
C           -1.50294325438551       -4.02368276117808        1.31930349382234
C           -2.93570240714494       -3.90189950858415        0.79558560421879
C           -3.71077121555449       -2.73748716961488        1.40980447014030
C           -5.06461029388691       -2.53427852476783        0.75675819913801
Br          -4.87259136719589       -1.91545950978528       -1.09717565422179
C            1.68574959093841       -1.21116313649924       -0.02027138125702
C            2.69588957450959       -2.07752745335921       -0.28705599534366
C            3.90974348298755       -1.92937813156602        0.41992194235376
Br           5.33917559056665       -3.12526720354992        0.05651471718400
C            4.09623655587102       -0.90952034867047        1.38016076720380
C            3.09038300245773       -0.03810520210483        1.66415773148628
C            1.84130030853965       -0.16612767230807        0.97579249173120
C            0.66325294361536        0.55017720899756        1.07229486853155
C            0.28563495279467        1.65918258366466        1.89706700903566
C           -0.97831810884045        2.15298521798751        1.80536332002848
C           -1.91284809320637        1.57891096725420        0.90882895507193
Br          -3.67302302530171        2.29851414904471        0.83318252604096
C           -1.57331680606023        0.49651715083490        0.06916008237517
C           -0.30877444659180        0.00268765534189        0.13654264166335
H            0.06634085475712        3.82545610594360       -0.64362913298614
H            0.47867540498627        5.53169448697712       -0.94118900652039
H            0.33875691713995        4.30511037546420       -3.07031614805054
H            1.98135811057150        4.89265455075971       -2.78697306694802
H            2.68674879662346        2.63720945623394       -2.04604406258631
H            2.05646669440615        2.63958907266195       -3.69077848243453
H           -0.15911329670888        1.82015968076266       -2.79513411955604
H            0.57051230891212        1.73410149565345       -1.18933680472057
H            2.28215529769939        0.14455001162352       -2.05835408681617
H            1.50241810770570        0.19725525197011       -3.63703233682999
H           -0.63087318838939       -0.64170980164934       -2.51537299658874
H            0.71324125922903       -1.77558162229800       -2.64210959313171
H           -1.48410906697873       -2.28659510568811       -0.84451979606545
H           -0.01286626398005       -3.25567237391586       -0.94340465587247
H            0.37511571975750       -3.00538899984599        1.47006857979638
H           -1.01061341882528       -1.94173522318571        1.62227817343121
H           -1.53185630009796       -4.21244767831025        2.39547411444176
H           -1.04174123460519       -4.89334893163258        0.84511462760346
H           -3.46379985839639       -4.83445734962494        1.01292944172767
H           -2.91300041904965       -3.78951810985889       -0.28981295772476
H           -3.13430623934848       -1.81561877960332        1.32067841473073
H           -3.87793699405399       -2.92616315162918        2.47387723602636
H           -5.63859287481516       -3.45847812335105        0.70299026372429
H           -5.64612148525156       -1.76248144208007        1.25948367513680
H            2.59952895738857       -2.86327399106337       -1.02051394149165
H            5.04925030850226       -0.83616771222562        1.88224985290874
H            3.22362620065344        0.74664262115071        2.39121612552502
H            1.00481778927763        2.09351388077579        2.57234902822561
H           -1.28983143600979        2.98906418600438        2.41393645336799
H           -2.30980536090056        0.09686419415831       -0.61135455225987
