  34
  -52.3821692600000        1.00000000000000      !
 C         -5.1544845867       -1.5324746996       -0.0213138689
 C         -5.5701076818       -0.2018881022       -0.0133563531
 C         -4.6443139173        0.8186700362        0.0002116780
 C         -3.2804140576        0.5222406805        0.0054040024
 N         -2.3426433320        1.5126649308        0.0136832686
 C         -0.9881672860        1.3033479877        0.0102943271
 C         -0.1113518890        2.3638530953        0.0034636935
 C          1.2768172257        2.1531026249       -0.0039317559
 C          1.7732235275        0.8803341258        0.0001290601
 C          3.1188125274        0.3684619771       -0.0034924751
 C          4.3558203511        0.9901156996       -0.0203276534
 C          5.4955427572        0.2039173222       -0.0225504479
 C          5.4089722005       -1.1860475371       -0.0071554756
 C          4.1834835613       -1.8240308785        0.0097078009
 C          3.0268645087       -1.0512121007        0.0100515609
 C          1.6474766698       -1.4170908284        0.0221545061
 C          0.8894660407       -0.2658447179        0.0134092002
 C         -0.5275052187       -0.0672672022        0.0122738239
 C         -1.4514641052       -1.0823710514        0.0080330861
 C         -2.8462160119       -0.8235593087        0.0005453699
 C         -3.8137148624       -1.8385185957       -0.0135202552
 H         -5.8903473635       -2.3218791721       -0.0329737987
 H         -6.6240225673        0.0312214812       -0.0188174463
 H         -4.9631045137        1.8514723148        0.0061077211
 H         -2.6655052085        2.4719421860        0.0153587865
 H         -0.4984673366        3.3730650076        0.0017466469
 H          1.9382160651        3.0072477411       -0.0121490882
 H          4.4338514857        2.0679680358       -0.0360661772
 H          6.4693411610        0.6724015201       -0.0382297839
 H          6.3179083886       -1.7710413367       -0.0065949900
 H          4.1233963259       -2.9032240691        0.0249168881
 H          1.2868058062       -2.4296856155        0.0351378452
 H         -1.1199691595       -2.1093039406        0.0079377318
 H         -3.4848361086       -2.8670318182       -0.0177161579
