  83
       -111.61525389
 C         -5.4712970659        3.6462873616       -2.2522692539
 C         -5.5841781117        2.4778671170       -1.2809977477
 C         -5.4087519021        1.1405043429       -1.9969569075
 C         -5.5519906445       -0.0684038029       -1.0552262467
 C         -5.3559259093       -1.3682180600       -1.8555137745
 C         -5.4935906065       -2.6235593444       -0.9971604654
 C         -5.3071455184       -3.8868511076       -1.8280587376
 C         -6.8830824575       -0.0553020252       -0.3419864875
 C         -8.1516236111       -0.1122806439       -0.8774711918
 C         -9.2429718607       -0.0843491235       -0.0188854153
 C         -9.0647383433       -0.0007999133        1.3534564355
 C         -7.7931046609        0.0568014667        1.9005289549
 C         -6.7025628001        0.0293135940        1.0469452395
 C         -5.2778459022        0.0760935954        1.3230445885
 C         -4.5875047861        0.1635762289        2.5223645817
 C         -3.2067157329        0.1951941185        2.4963951653
 C         -2.5123308385        0.1384476228        1.2833444880
 C         -1.1039166016        0.1708754882        1.2831953441
 C          0.1046830910        0.1991287148        1.2865435617
 C          1.5127816106        0.2182663715        1.3121264600
 C          2.1812729812        0.4008910495        2.5284980062
 C          3.5606627488        0.4076320523        2.5834940363
 C          4.2771934850        0.2282530857        1.4088395960
 C          3.6120998813        0.0507199495        0.1837681001
 C          2.2394003109        0.0458543234        0.1264342191
 C          4.6027847112       -0.1257114563       -0.9419150236
 C          4.4687641404        0.9924281654       -1.9910749800
 C          4.6332145020        2.3909383094       -1.4003297100
 C          4.4902329929        3.4640913989       -2.4720316573
 C          4.4368230845       -1.4938661813       -1.6268102493
 C          4.5523593636       -2.6670743991       -0.6561844794
 C          4.3668720536       -3.9981731331       -1.3733380492
 C          5.9173728553       -0.0333887195       -0.2064329999
 C          7.1913868329       -0.1270018361       -0.7115564438
 C          8.2706862502       -0.0090573368        0.1738464462
 C          9.5869647437       -0.1028318489       -0.3246809589
 N         10.6547970846       -0.1795945607       -0.7387435832
 C          8.0607515603        0.1994394382        1.5398807495
 C          6.7769229406        0.2932677651        2.0420804878
 C          5.7055822884        0.1767032165        1.1679203327
 C         -3.2124116020        0.0480969397        0.0726947981
 C         -4.5855738429        0.0187816260        0.1019361880
 H         -4.4996794864        3.6444577159       -2.7421335204
 H         -6.2408949449        3.5821169818       -3.0186441055
 H         -5.5884872006        4.5913651482       -1.7277103529
 H         -6.5612338285        2.5020066232       -0.7942523737
 H         -4.8236191727        2.5754432445       -0.5035719697
 H         -4.4215886584        1.1090455034       -2.4630500412
 H         -6.1554305623        1.0575084711       -2.7894246505
 H         -6.0952418028       -1.4003021058       -2.6585338410
 H         -4.3648630824       -1.3531584430       -2.3140710633
 H         -4.7499132963       -2.5999759815       -0.1979667789
 H         -6.4809428746       -2.6365586335       -0.5313150718
 H         -4.3200349196       -3.9020747947       -2.2855403297
 H         -6.0517981050       -3.9369932719       -2.6197036118
 H         -5.4095182623       -4.7720534669       -1.2052059867
 H         -8.3023907856       -0.1770819749       -1.9454368132
 H        -10.2427861457       -0.1278300447       -0.4253179929
 H         -9.9279924885        0.0197842816        2.0023456332
 H         -7.6572849343        0.1219146622        2.9698847877
 H         -5.1167472789        0.2069058698        3.4626319814
 H         -2.6445398336        0.2635981361        3.4164380375
 H          1.5982051121        0.5347383434        3.4278598142
 H          4.0694639213        0.5471211151        3.5256348067
 H          1.7116985895       -0.0921187617       -0.8059877873
 H          3.4860356332        0.9149248931       -2.4602897769
 H          5.2224538880        0.8391320578       -2.7660977099
 H          5.6160414841        2.4747410693       -0.9317386519
 H          3.8810082410        2.5479589223       -0.6244578708
 H          3.5081459986        3.4116229597       -2.9371365287
 H          4.6119978614        4.4538368957       -2.0392181644
 H          5.2433852849        3.3338026398       -3.2462354989
 H          3.4590739572       -1.5251429569       -2.1115326035
 H          5.1980883019       -1.5933920833       -2.4031401838
 H          5.5326727998       -2.6465385975       -0.1753683101
 H          3.7968578544       -2.5666814428        0.1257995518
 H          3.3858734723       -4.0464837683       -1.8412443454
 H          5.1218140356       -4.1247701495       -2.1463841265
 H          4.4529100216       -4.8243530742       -0.6720751487
 H          7.3773796865       -0.2876256225       -1.7633533642
 H          8.9145450082        0.2861352052        2.1958705121
 H          6.6151996630        0.4540303829        3.0971837626
 H         -2.6638545656        0.0052847092       -0.8571591112
