126
 energy: -201.874065709030 gnorm: 0.000060439421 xtb: 6.7.1 (edcfbbe)
C           -6.60389170595796        5.58088799201188       -1.49601744172951
C           -7.31415465297925        5.10491862529209       -0.22607835128538
C           -8.68813212534053        5.78693973897339       -0.16087722954163
C           -6.46535136795273        5.52341580236674        0.98293117386893
C           -7.50949193283434        3.59798100158011       -0.19413342167028
C           -7.08404062258213        2.75847438365631       -1.21673510307567
C           -7.27807574094550        1.38982715928857       -1.15313110785637
C           -7.90839195333161        0.82791127779082       -0.05316098348831
N           -8.07183619440051       -0.56981112734965        0.02926420877949
C           -7.04450368366468       -1.48372498156418        0.11013065596931
C           -5.63083417798915       -1.15364059329523        0.14563879920155
C           -5.12767107576305       -0.00299828285659        0.75146979206932
C           -3.77089369453567        0.24673119935685        0.75597152004232
C           -2.88273827100579       -0.64321328687548        0.15646125356058
C           -1.43905646036887       -0.36348943497373        0.14963386827568
C           -0.76190054613871        0.05742069713009        1.29449748309265
F           -1.42928989255315        0.18556985621318        2.45219569978392
C            0.59913056329528        0.32291690858801        1.28520063655461
F            1.18366026181624        0.68852224897320        2.43721512176934
C            1.37070049055474        0.19009700702992        0.12945111293022
C            2.80989586950291        0.48938293403038        0.11901415612192
C            3.70861407850302       -0.35869843809729       -0.52411358942987
C            5.06025998882003       -0.08088264959117       -0.53175801514061
C            5.55202347250429        1.05371457931431        0.11310507753514
C            6.95403582759490        1.42610585274655        0.14984754915993
N            7.34109683485100        2.67566702512556        0.26206594496143
C            8.69587053429291        2.65289803525332        0.25959280980958
C            9.58859609319208        3.75932627727860        0.32438530065974
C            9.11088467151862        5.07190619533228        0.39252727702788
C            9.98756569870114        6.12734333567429        0.42770631337855
C           11.35809407365261        5.87921454150000        0.39097228869053
C           11.83844833866772        4.59189189667112        0.32863936953543
C           10.97494784745043        3.48615432211680        0.29937271333329
C           11.45110056264357        2.11347481326703        0.26416262647029
C           12.81920924228257        1.81025605789142        0.30611176813744
C           13.28028513306229        0.51508453332619        0.31208916426291
C           12.38108468515605       -0.54587511119250        0.29111515274633
C           11.03240559897365       -0.29281440019599        0.24267277759878
C           10.54242746926106        1.02056464152688        0.21056452959168
C            9.15584164578470        1.33947210199322        0.15918393974813
N            8.02477253853775        0.56214145038897        0.07761771197383
C            7.94330863888930       -0.84038057667178       -0.04599598622530
C            7.43960658303564       -1.60519802076247        0.99819809297152
C            7.33156697999361       -2.97401687239935        0.85450752296587
C            7.71796614010444       -3.61974342281512       -0.31850289649820
C            7.56854291050288       -5.12853627997279       -0.42480191058808
C            8.05034125813064       -5.67653986621505       -1.77078500380061
C            6.08573503934683       -5.49186524758671       -0.26193092568739
C            8.39437643044583       -5.79313948729174        0.68572995382311
C            8.22354356656863       -2.83672713702342       -1.35080253819977
C            8.33459965747714       -1.46402016805167       -1.22384185323055
C            4.64485223624583        1.91600008492576        0.73549354681912
C            3.29664412904133        1.63888823526123        0.74245780160857
C            0.69280225783059       -0.23302567506569       -1.01494700609092
F            1.35625349813942       -0.35641899501022       -2.17568363141940
C           -0.66745534779655       -0.50288046046495       -1.00431831790859
F           -1.25373206497833       -0.87527329995681       -2.15339775244459
C           -3.38172577149555       -1.80644126774678       -0.42878532469670
C           -4.73554978771958       -2.05994023692235       -0.42633032375510
N           -7.48655730253844       -2.71751041946028        0.15793037514689
C           -8.83976132531166       -2.63284320991479        0.11581463259732
C           -9.78392019080994       -3.69548550879136        0.18177050520807
C           -9.37000625776699       -5.02455075947893        0.31672507675379
C          -10.29657947359306       -6.03280421439661        0.40929413324200
C          -11.65381516754061       -5.71986381614014        0.37195027972449
C          -12.07155775816851       -4.41671016306382        0.23417708025202
C          -11.15557726016568       -3.35902825645258        0.12717671961274
C          -11.56448626366268       -1.97609199843093       -0.05190298621060
C          -12.91424317644236       -1.62095955347676       -0.18474660469055
C          -13.30997049822725       -0.32130790853628       -0.39535559734498
C          -12.36001897717422        0.68944505322638       -0.49919747469866
C          -11.02747378891328        0.38566590065696       -0.36767275944133
C          -10.60467220059307       -0.92922336445221       -0.12610266007498
C           -9.23750237487972       -1.29911959776057        0.01877037721791
C           -8.33891051269002        1.65030265976268        0.98290099402369
C           -8.14124225968776        3.01344834462546        0.90308606886930
H           -6.49089764403955        6.66243871816655       -1.46251048325595
H           -5.61172494360818        5.14319689552366       -1.57828110889929
H           -7.17967035912633        5.33228402915302       -2.38451160385043
H           -9.21392497913492        5.53701357144618        0.75639841506693
H           -9.30301720810957        5.47540851756903       -1.00281853426406
H           -8.57055049269247        6.86749718118684       -0.20140839180704
H           -6.95388911869731        5.27092877487100        1.91985054667949
H           -6.29753604974109        6.59795485514536        0.96658552171716
H           -5.49940009513570        5.02333448084923        0.95554212271293
H           -6.59149233842780        3.15813747182343       -2.08724911675349
H           -6.93789383599251        0.75216029572881       -1.95573193589814
H           -5.78934892339855        0.69400401587452        1.24107062424907
H           -3.39924066547185        1.14732587463542        1.22034485492832
H            3.35087512312245       -1.25040490639885       -1.01548489479641
H            5.72402174181980       -0.74546625105869       -1.06101835315077
H            8.04227294716099        5.21938085517777        0.41014819468110
H            9.62360827712128        7.14286873464038        0.47915738387620
H           12.05251541344426        6.70681162818783        0.41173152425276
H           12.90714265034521        4.45013600999697        0.29958613092290
H           13.54409167388821        2.60720204676036        0.34335957280913
H           14.34237268985212        0.32150708392489        0.34504327536650
H           12.74042253095220       -1.56403337382407        0.31685265525684
H           10.33894742832130       -1.11851240081508        0.24333163228743
H            7.13108408837938       -1.12158451142407        1.91319043577226
H            6.93588100730185       -3.54366011840238        1.68093068268592
H            7.92223204974567       -6.75677516249843       -1.78711315731019
H            9.10516410443947       -5.46243132903941       -1.92685543557864
H            7.47444122467579       -5.25969126170293       -2.59377986767922
H            5.49288411138305       -5.00999623219780       -1.03672386842273
H            5.70286733716425       -5.17752745748789        0.70498927720989
H            5.95394921628301       -6.56820264552954       -0.34677138041751
H            8.04878591757128       -5.49605505369822        1.67183763798174
H            8.31691705739270       -6.87547526732946        0.61085761850780
H            9.44237976028955       -5.51554154261768        0.59309067353414
H            8.53700625017337       -3.28506254002874       -2.27878642424061
H            8.72739615340398       -0.86935864737344       -2.03590834249343
H            5.02777999891043        2.80624438326307        1.20818975846213
H            2.61291334257010        2.32290148151985        1.22093374760946
H           -2.70342678995798       -2.51820739088696       -0.87368360267701
H           -5.12870634289666       -2.96240239698219       -0.86668843541314
H           -8.30978125276817       -5.22136804838014        0.35131289341261
H           -9.98196962297109       -7.06053749377697        0.51513996433800
H          -12.38742320294483       -6.50915870999531        0.45208165850384
H          -13.13235516616350       -4.22339342524923        0.21347581991653
H          -13.67643694921706       -2.38135401103805       -0.13124074535835
H          -14.35980609007215       -0.08691105948722       -0.49290483074257
H          -12.66731699732987        1.70770628133358       -0.68668846925101
H          -10.29383137429937        1.16968452924509       -0.46694344701134
H           -8.82824830110178        1.21418472896440        1.84184841193450
H           -8.48614334035249        3.62762911241589        1.72053123295923
