126
 energy: -201.874923550374 gnorm: 0.000055565295 xtb: 6.7.1 (edcfbbe)
C           -5.95352108166329       -5.84776217788615        1.10726642806445
C           -6.86075641695103       -5.53626550572275       -0.09151713131108
C           -8.17092763464012       -6.32838850600896        0.02385201681540
C           -6.14012683018433       -5.98614549166947       -1.36497828535882
C           -7.17789179355281       -4.05001684789539       -0.09249315437388
C           -7.84610398087167       -3.49213009698349        0.99692617852216
C           -8.14475317121779       -2.14614164765605        1.05127848415045
C           -7.78258292595086       -1.31535553363790       -0.00390883044647
N           -8.03806277674350        0.06977179777426        0.05548004640846
C           -7.06854673050830        1.04758598903823        0.09384219051706
C           -5.63744408703253        0.80104588156524        0.10372263986955
C           -5.05763961138227       -0.29852139516429        0.73571156869613
C           -3.69133218411205       -0.48241115478714        0.70165305862321
C           -2.86639566954265        0.43106729263047        0.04822201579386
C           -1.41279642005233        0.21573392854638        0.00286595661895
C           -0.86386358049832       -1.03353311719031       -0.29062040036945
F           -1.67471812860326       -2.06525874611826       -0.57854120517709
C            0.50622657514035       -1.24474460150349       -0.32686779316045
F            0.95442361093038       -2.46923255030345       -0.64431313911912
C            1.41688434786735       -0.21826939580308       -0.07450193641345
C            2.87054659035971       -0.43636481026925       -0.10206430554616
C            3.70545668010053        0.46326534621364       -0.76124060028914
C            5.07258477957215        0.28094451192632       -0.76716735575751
C            5.64308941420146       -0.80017757235220       -0.09579475804549
C            7.07356762661940       -1.04193406681158       -0.03827558026381
N            7.58871830045668       -2.24701838618184        0.01506059804392
C            8.93388273243550       -2.07855949777662        0.05375311280253
C            9.93975768075498       -3.08480618629477        0.08010290639801
C            9.60604400419316       -4.44275294624017        0.05647660163924
C           10.59119917732736       -5.39835069924605        0.05504756113293
C           11.92720182558677       -5.00320334953525        0.07346132690291
C           12.26618841626141       -3.67051226486072        0.10145929799748
C           11.28859874583694       -2.66384834141428        0.11210666226437
C           11.61367355027772       -1.24870996901133        0.17270303918269
C           12.93927478115111       -0.80342915662725        0.27318419738631
C           13.25583877530406        0.53086331806813        0.37090966072622
C           12.24694075036997        1.48829654806249        0.38863681120610
C           10.93542110309371        1.09528164788405        0.28498060692019
C           10.59302646260406       -0.25840969634369        0.15744600727683
C            9.25103634842247       -0.71980552271755        0.04325954085461
N            8.04461005332021       -0.06466818272142       -0.02819594866539
C            7.79479603872954        1.32260786547607       -0.06141235579161
C            8.17398917111864        2.08075097427468       -1.16428258199609
C            7.87719833152310        3.42764392531232       -1.20429621970106
C            7.19459593459913        4.05761419697621       -0.16419588307417
C            6.87584280260517        5.53966355460174       -0.27149920164491
C            6.13848721197156        6.07472578486503        0.95870358271645
C            5.98323705410638        5.76519158303886       -1.50024974445131
C            8.18595818466761        6.32522280163166       -0.42528237319669
C            6.82777519553299        3.28304196868356        0.92988007574852
C            7.12196286307231        1.93222324187090        0.98684232369535
C            4.80145100146243       -1.72040216370698        0.53315492190180
C            3.43546756606734       -1.54362175763146        0.53035697674044
C            0.86848509418951        1.03197971062605        0.21432758599611
F            1.68031550327376        2.06391521456717        0.49836545289180
C           -0.50162053629148        1.24271346722388        0.25298954603165
F           -0.94818350225054        2.46707094311046        0.57323284188081
C           -3.44131094028373        1.55111442916741       -0.55191453187658
C           -4.80669810694682        1.73218744061405       -0.52254347826298
N           -7.58525810411205        2.25224517495266        0.12679391223384
C           -8.93126700407678        2.08248243181421        0.11918637029512
C           -9.93830209544781        3.08555737965006        0.18710816393051
C           -9.60520961653913        4.44032353961254        0.28538368057676
C          -10.59065187042687        5.39091259663358        0.38006219389851
C          -11.92619047164156        4.99371004615074        0.38117349827281
C          -12.26473401323226        3.66446746410973        0.28004326026986
C          -11.28712820454847        2.66346337785825        0.17314588750289
C          -11.61274990358348        1.25411339584930        0.03336535932597
C          -12.94041083783742        0.81243570745853       -0.05535641747511
C          -13.25860487934470       -0.51371954791229       -0.22896098375831
C          -12.24979925315899       -1.46506926820980       -0.33908331657166
C          -10.93612338482655       -1.07583621244942       -0.24960558710327
C          -10.59124664402321        0.26773010080893       -0.04496052051788
C           -9.24683154059543        0.72472681272457        0.05839734531162
C           -7.12114251202498       -1.85185811473324       -1.09832565743755
C           -6.82486532517227       -3.20282734549527       -1.13605432705187
H           -6.43758840234393       -5.60073897240902        2.04815438670970
H           -5.70395471525712       -6.90632375725873        1.12092991674208
H           -5.03006994102310       -5.27683632849394        1.03668773697988
H           -8.83076148520491       -6.08732663007726       -0.80714211097233
H           -8.69286466304756       -6.10448008278941        0.95002648292480
H           -7.96419188115439       -7.39599619346941        0.00077667046252
H           -6.75139253530950       -5.80562318340447       -2.24627551975809
H           -5.94110047560136       -7.05425354903977       -1.30863501249006
H           -5.18753194421572       -5.47410596621913       -1.47806866365263
H           -8.13813510604523       -4.11327764777801        1.82964659848770
H           -8.65870928631493       -1.73002114990595        1.90588296849989
H           -5.66755434981527       -1.00542790184790        1.27577256631930
H           -3.25926344128185       -1.33334089330237        1.20559037623671
H            3.28074430739814        1.30266494314446       -1.29032767968955
H            5.68974879005083        0.97600637833635       -1.31397139518954
H            8.55963764650788       -4.70448894155363        0.03343664294505
H           10.33862728778226       -6.44821547231367        0.03541901429304
H           12.70674415080245       -5.75143556856049        0.06577609715259
H           13.31352876651410       -3.41352617848790        0.11245274149590
H           13.74580136615754       -1.51856558591177        0.28348951901289
H           14.28947629096415        0.83505779625800        0.44632848098465
H           12.49234153194508        2.53541374911577        0.48731207084796
H           10.15561155301513        1.83945246754588        0.31651153026998
H            8.69840636217970        1.60757988608196       -1.98201869069586
H            8.18139675850630        3.99125718041936       -2.07281295806510
H            5.94061509589800        7.13642068593671        0.82717924806592
H            6.73787349856100        5.95496524377671        1.85830321084630
H            5.18431421042209        5.57100399458112        1.09376708086692
H            5.06097919968248        5.19620441613385       -1.40309462942622
H            6.48051431321684        5.45722655665854       -2.41595684239677
H            5.72997705509999        6.81924453408448       -1.58881139432567
H            8.72030306873008        6.03840046518042       -1.32670214261073
H            7.97701072352898        7.39125623634760       -0.47983207295240
H            8.83534476335462        6.14479613467545        0.42897105788069
H            6.30022684960405        3.72019413048213        1.76072879165622
H            6.82351440275736        1.34411017673690        1.84213091769630
H            5.24654860531317       -2.57027910736537        1.02552003992443
H            2.80254416406718       -2.25412613246601        1.03924577936461
H           -2.81737930705928        2.27053817582479       -1.05923578365280
H           -5.25824034548143        2.59468072075168       -0.98637597290688
H           -8.55883030064941        4.70314496386653        0.29052536329018
H          -10.33851660737994        6.43817525527903        0.45793092944762
H          -12.70571551539796        5.73757735715944        0.46241589016101
H          -13.31160951803386        3.40545802207453        0.28805367033739
H          -13.74746751552958        1.52455526240500        0.00426818604347
H          -14.29377075182543       -0.81542226664153       -0.29247894748360
H          -12.49702534289155       -2.50429071921503       -0.49819642733517
H          -10.15701176622043       -1.81413256505663       -0.35339024685997
H           -6.83486850611992       -1.20724791399072       -1.91628469572247
H           -6.30774768825994       -3.58215840445218       -2.00116816425535
