126
 energy: -201.798281396867 gnorm: 0.000081183526 xtb: 6.7.1 (edcfbbe)
C           -6.30037710504374       -5.97927627395735        1.19067872633152
C           -7.30893387855115       -5.65903650027442        0.07823649842730
C           -8.64699800777867       -6.35398696878952        0.36841567768076
C           -6.75841977976267       -6.21153116013351       -1.23898117017216
C           -7.52925078255565       -4.15612137281631        0.03581859958044
C           -8.03638935340308       -3.50709257923574        1.16121179824255
C           -8.24012988562898       -2.14241622453719        1.17938640075368
C           -7.93798368808472       -1.38526203066024        0.05220620246178
N           -8.11457241495174        0.01497062040049        0.06392969706010
C           -7.09774718107427        0.96349951092592        0.07176518010603
C           -5.69586025023618        0.71339737639242        0.13160812107439
C           -5.10294051977039       -0.49706222105667        0.54569433151256
C           -3.74558070603895       -0.65399291549555        0.53962800485829
C           -2.87523352206015        0.38548727265618        0.13331478185351
C           -1.45621036406484        0.19591678560370        0.09755362905671
C           -0.84484938689775       -1.05930549624000       -0.16887139616639
F           -1.62032904233613       -2.11917860521773       -0.48491650294832
C            0.51016234124113       -1.24554258240515       -0.21118145273104
F            0.95064795354020       -2.47189373182340       -0.56213029501371
C            1.44976882258841       -0.20185974324917        0.00565239117549
C            2.86869426128839       -0.38821876555141       -0.04188332976598
C            3.73223954255549        0.65485138278037       -0.45407857133613
C            5.08951289117427        0.50046670155020       -0.47870800736468
C            5.69033388552014       -0.71111489677060       -0.07893314415534
C            7.09283958846047       -0.96088880546706       -0.04552934894516
N            7.58943348260599       -2.19137896580377        0.00173064382150
C            8.92411513851683       -2.06557514721744       -0.00252037261030
C            9.89969007304478       -3.10147684068782        0.00188018521336
C            9.51869691424559       -4.44705296388975       -0.00320683262923
C           10.47093632171674       -5.43731569628759       -0.02331245621192
C           11.81811919849319       -5.08698126518451       -0.04277146657745
C           12.20363059601296       -3.76430126137886       -0.03401146344615
C           11.26266187613784       -2.72578876189719       -0.00583574402118
C           11.63702466698753       -1.32074041936904        0.02877249561392
C           12.97736888448614       -0.92114783561189        0.08121406972787
C           13.34449114645660        0.40434629928845        0.14268375673574
C           12.37098681123206        1.39850028691907        0.16684276053287
C           11.04436230459070        1.05172295910859        0.11225523529095
C           10.64732680676113       -0.29397505348380        0.02955542626929
C            9.29152798476603       -0.70476390101167       -0.02978351752473
N            8.11032707726489       -0.01296889691417       -0.06458864529808
C            7.93605637775015        1.38769468115087       -0.05230121198253
C            8.19984331227660        2.14017118441952       -1.19219302294783
C            7.99807192533066        3.50511846281678       -1.17225221315253
C            7.53184606167587        4.15914481901261       -0.03213185726795
C            7.31004859822081        5.66188506462648       -0.07312112300529
C            6.81733311975484        6.22175022740467        1.26372531270619
C            6.25371654428192        5.97485177262999       -1.14248095119565
C            8.63354219443034        6.35607288001662       -0.42523842312521
C            7.28087839826145        3.38926096670623        1.09775156247672
C            7.47901528592892        2.02000032067177        1.09470455646293
C            4.83018929046641       -1.77235839116167        0.28864275251857
C            3.47490616876723       -1.61979348090132        0.30824649195369
C            0.83822122393760        1.05260839823030        0.27600249950575
F            1.61364455267320        2.11163075604685        0.59508148964921
C           -0.51669122439592        1.23879663704520        0.31817356645000
F           -0.95763245777402        2.46427413589635        0.67168826592750
C           -3.47417687606282        1.61760927981110       -0.22674931413506
C           -4.82938893344680        1.77266533250090       -0.22566172261463
N           -7.59354684342844        2.19379595350071        0.01934196959202
C           -8.92812686094228        2.06731623076597       -0.00662701398907
C           -9.90376739425252        3.10290033516622       -0.02711255501376
C           -9.52360737055715        4.44855162866199       -0.00490028001290
C          -10.47654641724227        5.43830493000126        0.00024330228260
C          -11.82366569886563        5.08737866231769       -0.01284982439196
C          -12.20825165290461        3.76466144811642       -0.03893395567019
C          -11.26636140894983        2.72669567371471       -0.05261245715478
C          -11.63898704341054        1.32174672970523       -0.10537573241481
C          -12.97747847558008        0.92207309198714       -0.19309680822858
C          -13.34225643361960       -0.40304808456191       -0.27337231766935
C          -12.36786381780995       -1.39655948003783       -0.28203113758947
C          -11.04313502847398       -1.04969843614878       -0.19256693502519
C          -10.64903771719821        0.29540953430689       -0.08941346229446
C           -9.29518538760549        0.70632841038864        0.00554328108603
C           -7.44005021690367       -2.01262934488617       -1.08043494338110
C           -7.23960862365926       -3.38153219843672       -1.08155117978950
H           -6.66760658064796       -5.66619446336102        2.16418355682410
H           -6.11256667340950       -7.04997491808114        1.22652108936088
H           -5.35785392226803       -5.47034762350116        1.00054654402913
H           -9.37394809353766       -6.10872649705676       -0.40334312804866
H           -9.05404542944538       -6.05173946139268        1.32934455494499
H           -8.51068350539103       -7.43296301713636        0.38233633887281
H           -7.44696952689484       -6.02766923905139       -2.06066836572454
H           -6.62309325489393       -7.28734588878469       -1.15017090316147
H           -5.79242854092139       -5.77166951037504       -1.47485941813227
H           -8.27445339499451       -4.07025926110569        2.05030662982539
H           -8.62944081328937       -1.65468633184653        2.06135063388471
H           -5.71416198205207       -1.30496829961858        0.91361783798054
H           -3.33268801927940       -1.58225655452802        0.89949704526149
H            3.31336877799351        1.58396446961620       -0.80468373890271
H            5.69396515068096        1.31155277498629       -0.85052437301407
H            8.46369778782959       -4.67190410826603        0.00369583098945
H           10.18195928572934       -6.47755285129599       -0.02811347826978
H           12.57240703884827       -5.86015215696147       -0.06507123423022
H           13.25917072815269       -3.54451043493480       -0.05238719099020
H           13.75899599365827       -1.66339902695648        0.08101197560187
H           14.39001175434089        0.67166640662273        0.18147139928666
H           12.65670862691216        2.43775752253288        0.23121250697360
H           10.29340372826656        1.82419136037522        0.14451793961637
H            8.55735782620570        1.64850578791237       -2.08534927127053
H            8.20474594549493        4.06450224035290       -2.07151702041885
H            6.68057407078233        7.29744042641011        1.17564895840623
H            7.54007728516461        6.03999000166093        2.05601473304577
H            5.86133474349376        5.78543005485564        1.54290583576730
H            5.32022762118719        5.46796502480522       -0.90753883658937
H            6.57793818754094        5.65407388058888       -2.12869776778881
H            6.06495082195871        7.04538673202813       -1.17795649992040
H            8.99742324700308        6.05112208524898       -1.40244906497117
H            8.49627239936709        7.43496326246048       -0.43657991201194
H            9.39435192670976        6.11359561170678        0.31406602875929
H            6.92099599935954        3.84517529598898        2.00452906646877
H            7.27063256712818        1.43506948974324        1.97816020191621
H            5.28452310804096       -2.70600256612754        0.57945695920471
H            2.86168350091815       -2.44220103807039        0.63734705062485
H           -2.85513620829348        2.43807273926117       -0.54975814285726
H           -5.27819334163689        2.70623038127423       -0.52519280078215
H           -8.46882431751295        4.67377811890011        0.01342684923032
H          -10.18827474307014        6.47859404790597        0.01833217815268
H          -12.57862714255832        5.86014240378712       -0.00245216805059
H          -13.26383449073042        3.54440133419960       -0.04568534906413
H          -13.75924933923046        1.66405457186414       -0.20649805661300
H          -14.38638428350225       -0.67048661171827       -0.33937053134126
H          -12.65129422589169       -2.43537826957215       -0.36178949320077
H          -10.29113473096224       -1.82155748588427       -0.21333996522289
H           -7.20174607427096       -1.42410871273824       -1.95388173122058
H           -6.84703279530306       -3.83342297336206       -1.97669115517457
