126
 energy: -201.798244523147 gnorm: 0.000058267887 xtb: 6.7.1 (edcfbbe)
C           -6.06672745889167       -5.95078097861818        1.08865921988112
C           -7.05345412368800       -5.65107142330551       -0.04891423248323
C           -8.36158696779616       -6.42297791865685        0.17514899980229
C           -6.43009582707252       -6.13501770875570       -1.36062791331870
C           -7.35002193213833       -4.16078051717809       -0.05691973897670
C           -7.92576524461685       -3.57132017386305        1.06825889751859
C           -8.19038342263435       -2.21800355307382        1.12152932200369
C           -7.88294821307744       -1.41212825088861        0.03013641190923
N           -8.10074424775818       -0.01914106310999        0.08271677927192
C           -7.10215842195975        0.94829777749141        0.09924727376474
C           -5.69592418480852        0.71428103977937        0.14253516097528
C           -5.09011868757964       -0.47907472198526        0.58529953722649
C           -3.73243522157023       -0.63032634771142        0.55847721145095
C           -2.87596556188050        0.39824248812424        0.09902629905375
C           -1.45750546151755        0.20919200212825        0.03825570585828
C           -0.85189052663734       -1.05479582266039       -0.19904045566325
F           -1.63369487710028       -2.12227573341952       -0.47151365677921
C            0.50190576172058       -1.24498326455916       -0.25430939985450
F            0.93659983523933       -2.48247288232793       -0.57199197707317
C            1.44577395384943       -0.19655106626679       -0.08355591984533
C            2.86359993380103       -0.38779018397349       -0.13335158197549
C            3.72675070706651        0.63793463558326       -0.58827303053547
C            5.08410230017963        0.48545623606434       -0.59971938449563
C            5.68495394355614       -0.70580057232700       -0.14218716349117
C            7.08850466390476       -0.94162114694944       -0.07426006673838
N            7.59922368120858       -2.16463441681481       -0.00068020000788
C            8.93196099800346       -2.02057724184983        0.02737097880132
C            9.92049392159270       -3.04327003958421        0.06652210142489
C            9.55729796297105       -4.39379212024091        0.06099964903719
C           10.52256746888311       -5.37149355747503        0.07370265363174
C           11.86510081961812       -5.00350258857654        0.08769878400409
C           12.23301231084044       -3.67577310699525        0.09737589350553
C           11.27817855070924       -2.64966798937009        0.09312249044553
C           11.63285515460929       -1.23955810082401        0.12944481082709
C           12.96546940201021       -0.82176968571302        0.22132723958892
C           13.31280633012740        0.50890957746854        0.28656172873850
C           12.32590720122641        1.49005162694115        0.27502562327170
C           11.00634841419141        1.12521234777689        0.18099538932010
C           10.63016959132782       -0.22614429829722        0.09320169999265
C            9.28220643828090       -0.65500098834756       -0.00391959944869
N            8.09346996609060        0.02029896820811       -0.07698217285874
C            7.88916783764897        1.41649696324879       -0.08122413380884
C            8.20028676528247        2.17209431131729       -1.20701550319777
C            7.95242794478384        3.52960465007418       -1.20924847001096
C            7.39053107231114        4.17270042287147       -0.10667185629626
C            7.11291964317833        5.66508849544561       -0.17551475883857
C            6.50067203583246        6.21098926239837        1.11696942272394
C            6.12602771479848        5.93043989680517       -1.32145749188388
C            8.43012365575911        6.40984329539933       -0.43552247501150
C            7.09854815365987        3.40110405071176        1.01213245385105
C            7.34332825861377        2.03967604675185        1.03158157200173
C            4.82527883814199       -1.75675585085367        0.25446474081686
C            3.46962227988366       -1.60630489014737        0.26090442332685
C            0.83993289620610        1.06826491411252        0.14949681039445
F            1.62156684092833        2.13670732274813        0.41833750834563
C           -0.51394783051671        1.25804342212201        0.20618214538918
F           -0.94806283509099        2.49617955675245        0.52193712514746
C           -3.48705187119893        1.61699529282624       -0.28441672362863
C           -4.84314756756647        1.76723210963633       -0.25958232825028
N           -7.61900996153120        2.16945584180692        0.07514896706650
C           -8.95215178634374        2.01851939317724        0.06163932142675
C           -9.94638911671890        3.03615289272869        0.07561728115389
C           -9.59038180538124        4.38772210995288        0.12616109170292
C          -10.56095663647857        5.35929617539766        0.16653981318341
C          -11.90161267392782        4.98408686805971        0.16112315465610
C          -12.26252095337921        3.65556077201360        0.10707358289860
C          -11.30222051823448        2.63579829330308        0.05630310235692
C          -11.64977695618741        1.22603023070111       -0.02858942938362
C          -12.98137618519474        0.80414316707743       -0.11784363862812
C          -13.32225319726561       -0.52501516786520       -0.22998222210678
C          -12.32992947264624       -1.49977383690605       -0.27118237639670
C          -11.01113563570321       -1.13084192061239       -0.18141672149614
C          -10.64139435569979        0.21810512130398       -0.04546772622011
C           -9.29425017669319        0.65111195848596        0.04965745646244
C           -7.32318852088772       -1.98150835347602       -1.10434099757260
C           -7.06159840400092       -3.33939563088010       -1.14060013849086
H           -6.48248049509590       -5.68685959567993        2.05722785189100
H           -5.82270234830528       -7.01062336835883        1.10085045372707
H           -5.14724543254868       -5.38722918512306        0.94559127224726
H           -9.07398251180038       -6.19402130390008       -0.61495863743671
H           -8.81640831929860       -6.17012724014897        1.12891093601967
H           -8.16853307884226       -7.49330839346430        0.16488406550012
H           -7.09901785922466       -5.96291707467421       -2.20086083367770
H           -6.24111971381276       -7.20451576412626       -1.29697313012975
H           -5.48125580046725       -5.63877563041011       -1.54954932386932
H           -8.16769751184399       -4.17251782696549        1.93106261477744
H           -8.62821470448788       -1.77632664743332        2.00511806825018
H           -5.69100742661165       -1.27477636529251        0.99493469925589
H           -3.30777847585177       -1.54329840401052        0.94289694612750
H            3.30693375547972        1.54944773637075       -0.98144258175697
H            5.68954260140852        1.27885586329257       -1.00672628645524
H            8.50549405719432       -4.63241802827149        0.04080167898156
H           10.24738540917398       -6.41546139773148        0.06858586436245
H           12.62972049595250       -5.76677456082946        0.09105204886519
H           13.28571705180203       -3.44216354724265        0.10537125396441
H           13.75642004669594       -1.55351424410581        0.25050320847101
H           14.35295585060527        0.79043677796825        0.35666968989952
H           12.59575400606406        2.53330754848350        0.34302922410676
H           10.24407104909837        1.88731375396344        0.18661920854681
H            8.62807700288710        1.68833123046045       -2.07326422364923
H            8.19688298612347        4.09116360578458       -2.09765476141108
H            6.32421904245684        7.27908993187057        1.00922462355753
H            7.17085588973224        6.06618287196262        1.96132641613703
H            5.54676271226699        5.73456440838191        1.32990786592654
H            5.20004456790480        5.38488312770067       -1.15279777801409
H            6.53499548449802        5.62201882634143       -2.27970343861361
H            5.89523833185484        6.99189261852986       -1.37624835272481
H            8.87845334220720        6.11108471401039       -1.37903457854260
H            8.25090477292711        7.48207893541614       -0.46984348694531
H            9.14215506704147        6.20511055356421        0.36153263388974
H            6.66730076318710        3.84901732445176        1.89130290086459
H            7.09985164715327        1.45273865140627        1.90467098049464
H            5.27997181640275       -2.67795796409955        0.58223582851278
H            2.85577760354979       -2.41751204787014        0.61565234407234
H           -2.87825731230341        2.42993462893795       -0.64381864718247
H           -5.30197444447220        2.69021021229177       -0.57660189457079
H           -8.53966895338200        4.63166323821577        0.13824390096030
H          -10.29136344367159        6.40397054094328        0.20672224788797
H          -12.67020787767986        5.74238211588415        0.19976211806609
H          -13.31393083840887        3.41602776532458        0.10811410300639
H          -13.77658151012241        1.53177828735164       -0.10768971692278
H          -14.36174207330080       -0.80991592225673       -0.29631368047089
H          -12.59491127473793       -2.54116206864610       -0.37669459780947
H          -10.24472738728872       -1.88738538419601       -0.22855335679108
H           -7.08225867378643       -1.35558046400839       -1.95066345689045
H           -6.61984817745021       -3.74460164392596       -2.03512791676933
