  126
       -201.79665416
 C         -6.3102238281       -5.9726267157        1.2267046141
 C         -7.2931171379       -5.6604650507        0.0892008104
 C         -8.6333921756       -6.3640521692        0.3475902113
 C         -6.7050043022       -6.2112662597       -1.2123665088
 C         -7.5242864132       -4.1594961915        0.0380110981
 C         -8.0411798127       -3.5084660478        1.1578180532
 C         -8.2496527107       -2.1444385009        1.1701142645
 C         -7.9445314701       -1.3899830621        0.0418738697
 N         -8.1170198530        0.0105512061        0.0507897271
 C         -7.0944663944        0.9539797413        0.0521895139
 C         -5.6933074453        0.7000659610        0.1068829624
 C         -5.1000083594       -0.5130825899        0.5122808691
 C         -3.7422127341       -0.6696015134        0.5038408731
 C         -2.8735126631        0.3735181834        0.1065794718
 C         -1.4526885287        0.1869823704        0.0739193109
 C         -0.8388944023       -1.0609681336       -0.2119471044
 F         -1.6112737149       -2.1167853653       -0.5479319117
 C          0.5176245444       -1.2429940029       -0.2522725930
 F          0.9625934637       -2.4613836786       -0.6240490292
 C          1.4523007290       -0.2016282641       -0.0105384908
 C          2.8726663663       -0.3842813048       -0.0529541401
 C          3.7363626822        0.6674094142       -0.4407289455
 C          5.0941650203        0.5159584104       -0.4612275601
 C          5.6954981339       -0.7022468648       -0.0820785020
 C          7.0966591237       -0.9540273223       -0.0494391713
 N          7.5904672807       -2.1864161563       -0.0004588086
 C          8.9246904742       -2.0648742684       -0.0055490611
 C          9.8969039975       -3.1037330087        0.0067551594
 C          9.5109570664       -4.4479209892        0.0106332968
 C         10.4595395339       -5.4419428426        0.0033264396
 C         11.8080200466       -5.0965081970       -0.0118020869
 C         12.1984018352       -3.7751117786       -0.0127564766
 C         11.2612594579       -2.7328106896        0.0012712413
 C         11.6403710609       -1.3289162102        0.0219880323
 C         12.9819084443       -0.9330431697        0.0673962489
 C         13.3536967760        0.3919586275        0.1109159127
 C         12.3835939627        1.3899014985        0.1214641486
 C         11.0557802705        1.0470633511        0.0743366928
 C         10.6537293222       -0.2985280842        0.0129402270
 C          9.2969606885       -0.7046371831       -0.0374950555
 N          8.1183308474       -0.0091674080       -0.0715972498
 C          7.9471388790        1.3920229068       -0.0501421117
 C          8.1714422912        2.1481685211       -1.1960956913
 C          7.9602075766        3.5115562926       -1.1676623120
 C          7.5256908826        4.1607375856       -0.0122399996
 C          7.2775349061        5.6594744252       -0.0472348871
 C          6.8483730952        6.2177619897        1.3120709924
 C          6.1582640880        5.9449099287       -1.0590237575
 C          8.5654876149        6.3778067387       -0.4742671067
 C          7.3209664963        3.3883368717        1.1251062268
 C          7.5270230716        2.0202319094        1.1130420099
 C          4.8344300584       -1.7705321449        0.2642669135
 C          3.4789497993       -1.6203405577        0.2798263963
 C          0.8375317420        1.0454876767        0.2801385584
 F          1.6083187039        2.1005959018        0.6220820825
 C         -0.5188734388        1.2277673726        0.3181408294
 F         -0.9656086512        2.4454088265        0.6902035696
 C         -3.4717758095        1.6070929969       -0.2463172163
 C         -4.8272790123        1.7614540412       -0.2451192577
 N         -7.5845429674        2.1869524544        0.0015244029
 C         -8.9194154004        2.0676646036       -0.0159329128
 C         -9.8885998239        3.1090683589       -0.0354462182
 C         -9.4993268226        4.4523406853       -0.0231279302
 C        -10.4455919263        5.4484307100       -0.0212552909
 C        -11.7950497688        5.1062195353       -0.0268527097
 C        -12.1885636259        3.7858712375       -0.0419535743
 C        -11.2536068904        2.7415696562       -0.0525346615
 C        -11.6351000202        1.3387453719       -0.0953341154
 C        -12.9765552064        0.9470022331       -0.1698300520
 C        -13.3502703397       -0.3761866676       -0.2420172244
 C        -12.3821197451       -1.3758691237       -0.2553863968
 C        -11.0546253842       -1.0370639210       -0.1780880217
 C        -10.6510375018        0.3060773546       -0.0831078121
 C         -9.2942601085        0.7082869573        0.0008956075
 C         -7.4432191699       -2.0205685547       -1.0876891235
 C         -7.2367071423       -3.3885395921       -1.0824516236
 H         -6.7051519630       -5.6663971769        2.1914593370
 H         -6.1122931605       -7.0414096555        1.2650148404
 H         -5.3683865763       -5.4536608483        1.0619043695
 H         -9.3388550307       -6.1342185572       -0.4482243453
 H         -9.0712727573       -6.0533025317        1.2921440513
 H         -8.4882452154       -7.4413420901        0.3785366184
 H         -7.3770025078       -6.0421549166       -2.0507090701
 H         -6.5560969858       -7.2845483314       -1.1147059665
 H         -5.7404469982       -5.7580482130       -1.4284069231
 H         -8.2822965432       -4.0691599388        2.0476311581
 H         -8.6439811962       -1.6549310482        2.0488511295
 H         -5.7105001272       -1.3238392210        0.8749990970
 H         -3.3280249782       -1.6008371791        0.8548470866
 H          3.3179247167        1.6027042274       -0.7752228675
 H          5.6982785108        1.3358976864       -0.8130334724
 H          8.4550494709       -4.6686005678        0.0149132710
 H         10.1667486590       -6.4811282684        0.0057565938
 H         12.5597021669       -5.8724587398       -0.0230203747
 H         13.2548605090       -3.5594221157       -0.0268524431
 H         13.7609731299       -1.6779166092        0.0748242788
 H         14.4002289395        0.6558843767        0.1446477073
 H         12.6732917565        2.4289156733        0.1690993446
 H         10.3074403127        1.8225418628        0.0945836563
 H          8.5021897920        1.6599830957       -2.1013854100
 H          8.1319646854        4.0733405831       -2.0727654604
 H          6.6953967686        7.2915894252        1.2286086508
 H          7.6133513493        6.0456830610        2.0660578231
 H          5.9128044540        5.7724291667        1.6417817515
 H          5.2477502927        5.4255628011       -0.7678948412
 H          6.4331344527        5.6179580868       -2.0582416164
 H          5.9504870825        7.0118180918       -1.0942017093
 H          8.8793893218        6.0792668317       -1.4705963568
 H          8.4068360715        7.4537705542       -0.4781557152
 H          9.3712803389        6.1509780966        0.2209353174
 H          6.9892205062        3.8405802378        2.0444005909
 H          7.3512133884        1.4328105085        2.0019216557
 H          5.2890059459       -2.7080408807        0.5416388151
 H          2.8653445417       -2.4485223330        0.5929786029
 H         -2.8525032714        2.4292273407       -0.5646881510
 H         -5.2765887784        2.6953328067       -0.5421835081
 H         -8.4429793442        4.6704547584       -0.0105867600
 H        -10.1507019746        6.4869860367       -0.0117647247
 H        -12.5447638914        5.8840778844       -0.0195648735
 H        -13.2456008407        3.5726345020       -0.0434243803
 H        -13.7539084906        1.6936871586       -0.1786431922
 H        -14.3965904423       -0.6371927335       -0.2978998699
 H        -12.6727677407       -2.4131383929       -0.3289435397
 H        -10.3075078669       -1.8136279469       -0.2018013875
 H         -7.2042284447       -1.4346908919       -1.9627046820
 H         -6.8379651769       -3.8423165079       -1.9738728227
