  85
  -134.115381339700        1.00000000000000      !
 C          3.4840793364       -4.7618005332        2.1266808694
 C          2.7647569298       -4.3530310733        0.8416700143
 N          2.2998799568       -2.9945779594        0.9044003147
 C          1.0596017457       -2.5691013526        1.3477130981
 C         -0.0198104317       -3.3248049527        1.7656162544
 C         -1.1857653580       -2.6592937847        2.1294612284
 C         -1.2729761456       -1.2755857637        2.0708918267
 C         -0.1989318264       -0.5011921690        1.6622002062
 C          0.9849929216       -1.1431601868        1.3021378790
 C          2.2525308851       -0.7284442809        0.8253543601
 C          3.0319107989       -1.8900024892        0.5976359686
 C          4.2693358730       -1.4884844955        0.0500364827
 C          5.4387226709       -2.1342190196       -0.3595585337
 C          6.4880147556       -1.3707331954       -0.8315385096
 C          6.4046717674        0.0172087790       -0.8902876114
 C          5.2536560978        0.6871825960       -0.4906953446
 C          4.1865013615       -0.0627082400       -0.0400608480
 N          2.9511686514        0.3732095772        0.4319983546
 C          2.4587461692        1.6784857589        0.4018901097
 C          1.8044148909        2.1992435759        1.5283459450
 C          1.1953214659        3.4283453396        1.4617856807
 C          1.2336821462        4.1619629344        0.2760970038
 S         -0.0402557881        5.3781321836       -0.0006291376
 O         -0.3251760876        6.1285621909        1.2014375127
 O          0.2363827193        6.1293260358       -1.2042528208
 C         -1.3009533691        4.1473345871       -0.2751726807
 C         -1.9925154250        3.6520892360        0.8296963021
 C         -2.5952352808        2.4177077560        0.7707119972
 C         -2.4888573236        1.6460077948       -0.3933927064
 N         -2.9578954072        0.3319869972       -0.4201663587
 C         -4.1876492500       -0.1262650499        0.0434134832
 C         -5.2703126127        0.6037829928        0.4907778636
 C         -6.4130726215       -0.0867984996        0.8770450208
 C         -6.4737889017       -1.4757180878        0.8094361515
 C         -5.4082560627       -2.2194234951        0.3426984384
 C         -4.2464342642       -1.5526703958       -0.0538030774
 C         -2.9991481128       -1.9310287897       -0.5964659780
 C         -2.2391514309       -0.7562526989       -0.8155205982
 C         -0.9630508940       -1.1472539704       -1.2902993822
 C          0.2101488463       -0.4838008384       -1.6458663081
 C          1.2974287550       -1.2378837594       -2.0567629048
 C          1.2338152379       -2.6229118857       -2.1216284702
 C          0.0792830669       -3.3094462194       -1.7626703340
 C         -1.0138826034       -2.5739737598       -1.3432949667
 N         -2.2477784572       -3.0221626640       -0.9059615359
 C         -2.6944463190       -4.3872924561       -0.8588533326
 C         -3.4104560043       -4.7884340078       -2.1482365461
 C         -1.8427108133        2.1730387198       -1.5215413619
 C         -1.2517815328        3.4111548664       -1.4587769985
 C          1.9308027646        3.6726550751       -0.8280059188
 C          2.5517924044        2.4477166838       -0.7652154027
 H          3.8309305261       -5.7886602501        2.0507067175
 H          2.8117135439       -4.6797653342        2.9775454471
 H          4.3405571615       -4.1138346747        2.2989112800
 H          3.4435338898       -4.4399389572       -0.0113585994
 H          1.9064918192       -5.0063061327        0.6644621054
 H          0.0281158219       -4.4022725458        1.8139048286
 H         -2.0393763302       -3.2314039198        2.4604246257
 H         -2.1966678060       -0.7944799367        2.3569467399
 H         -0.2793258007        0.5732637195        1.6100298391
 H          5.5247887729       -3.2087213488       -0.3000103757
 H          7.3973070395       -1.8572065263       -1.1512051588
 H          7.2493654391        0.5864328467       -1.2459550435
 H          5.2038836890        1.7647069099       -0.5221677329
 H          1.7833966580        1.6174740609        2.4374443034
 H          0.6671701669        3.8406475595        2.3064549162
 H         -2.0171636699        4.2488673739        1.7272479951
 H         -3.1007912769        2.0125798319        1.6340709011
 H         -5.2381448784        1.6818088352        0.5277404421
 H         -7.2698725494        0.4663755560        1.2291102866
 H         -7.3778146467       -1.9784296557        1.1187722665
 H         -5.4765282993       -3.2948058854        0.2760574927
 H          0.2722891367        0.5916522295       -1.5887312950
 H          2.2131955904       -0.7401898945       -2.3398495892
 H          2.0976541995       -3.1784957642       -2.4543059982
 H          0.0490335184       -4.3873217071       -1.8165721607
 H         -1.8275106747       -5.0314998329       -0.6909943830
 H         -3.3707138398       -4.4935764584       -0.0059337622
 H         -4.2759261150       -4.1497874325       -2.3104350580
 H         -3.7432536423       -5.8208256997       -2.0859408879
 H         -2.7406722236       -4.6855858086       -2.9989739295
 H         -1.8123518009        1.5885004584       -2.4285858339
 H         -0.7296569078        3.8284925275       -2.3047141896
 H          1.9455848736        4.2663956428       -1.7277795699
 H          3.0621621353        2.0470996224       -1.6278147091
