  85
       -134.64722477
 C          3.4840793364       -4.7618005332        2.1266808694
 C          2.7647569298       -4.3530310733        0.8416700143
 N          2.2998799568       -2.9945779594        0.9044003147
 C          1.0596017457       -2.5691013526        1.3477130981
 C         -0.0198104317       -3.3248049527        1.7656162544
 C         -1.1857653580       -2.6592937847        2.1294612284
 C         -1.2729761456       -1.2755857637        2.0708918267
 C         -0.1989318264       -0.5011921690        1.6622002062
 C          0.9849929216       -1.1431601868        1.3021378790
 C          2.2525308851       -0.7284442809        0.8253543601
 C          3.0319107989       -1.8900024892        0.5976359686
 C          4.2693358730       -1.4884844955        0.0500364827
 C          5.4387226709       -2.1342190196       -0.3595585337
 C          6.4880147556       -1.3707331954       -0.8315385096
 C          6.4046717674        0.0172087790       -0.8902876114
 C          5.2536560978        0.6871825960       -0.4906953446
 C          4.1865013615       -0.0627082400       -0.0400608480
 N          2.9511686514        0.3732095772        0.4319983546
 C          2.4587461692        1.6784857589        0.4018901097
 C          1.8044148909        2.1992435759        1.5283459450
 C          1.1953214659        3.4283453396        1.4617856807
 C          1.2336821462        4.1619629344        0.2760970038
 S         -0.0402557881        5.3781321836       -0.0006291376
 O         -0.3251760876        6.1285621909        1.2014375127
 O          0.2363827193        6.1293260358       -1.2042528208
 C         -1.3009533691        4.1473345871       -0.2751726807
 C         -1.9925154250        3.6520892360        0.8296963021
 C         -2.5952352808        2.4177077560        0.7707119972
 C         -2.4888573236        1.6460077948       -0.3933927064
 N         -2.9578954072        0.3319869972       -0.4201663587
 C         -4.1876492500       -0.1262650499        0.0434134832
 C         -5.2703126127        0.6037829928        0.4907778636
 C         -6.4130726215       -0.0867984996        0.8770450208
 C         -6.4737889017       -1.4757180878        0.8094361515
 C         -5.4082560627       -2.2194234951        0.3426984384
 C         -4.2464342642       -1.5526703958       -0.0538030774
 C         -2.9991481128       -1.9310287897       -0.5964659780
 C         -2.2391514309       -0.7562526989       -0.8155205982
 C         -0.9630508940       -1.1472539704       -1.2902993822
 C          0.2101488463       -0.4838008384       -1.6458663081
 C          1.2974287550       -1.2378837594       -2.0567629048
 C          1.2338152379       -2.6229118857       -2.1216284702
 C          0.0792830669       -3.3094462194       -1.7626703340
 C         -1.0138826034       -2.5739737598       -1.3432949667
 N         -2.2477784572       -3.0221626640       -0.9059615359
 C         -2.6944463190       -4.3872924561       -0.8588533326
 C         -3.4104560043       -4.7884340078       -2.1482365461
 C         -1.8427108133        2.1730387198       -1.5215413619
 C         -1.2517815328        3.4111548664       -1.4587769985
 C          1.9308027646        3.6726550751       -0.8280059188
 C          2.5517924044        2.4477166838       -0.7652154027
 H          3.8309305261       -5.7886602501        2.0507067175
 H          2.8117135439       -4.6797653342        2.9775454471
 H          4.3405571615       -4.1138346747        2.2989112800
 H          3.4435338898       -4.4399389572       -0.0113585994
 H          1.9064918192       -5.0063061327        0.6644621054
 H          0.0281158219       -4.4022725458        1.8139048286
 H         -2.0393763302       -3.2314039198        2.4604246257
 H         -2.1966678060       -0.7944799367        2.3569467399
 H         -0.2793258007        0.5732637195        1.6100298391
 H          5.5247887729       -3.2087213488       -0.3000103757
 H          7.3973070395       -1.8572065263       -1.1512051588
 H          7.2493654391        0.5864328467       -1.2459550435
 H          5.2038836890        1.7647069099       -0.5221677329
 H          1.7833966580        1.6174740609        2.4374443034
 H          0.6671701669        3.8406475595        2.3064549162
 H         -2.0171636699        4.2488673739        1.7272479951
 H         -3.1007912769        2.0125798319        1.6340709011
 H         -5.2381448784        1.6818088352        0.5277404421
 H         -7.2698725494        0.4663755560        1.2291102866
 H         -7.3778146467       -1.9784296557        1.1187722665
 H         -5.4765282993       -3.2948058854        0.2760574927
 H          0.2722891367        0.5916522295       -1.5887312950
 H          2.2131955904       -0.7401898945       -2.3398495892
 H          2.0976541995       -3.1784957642       -2.4543059982
 H          0.0490335184       -4.3873217071       -1.8165721607
 H         -1.8275106747       -5.0314998329       -0.6909943830
 H         -3.3707138398       -4.4935764584       -0.0059337622
 H         -4.2759261150       -4.1497874325       -2.3104350580
 H         -3.7432536423       -5.8208256997       -2.0859408879
 H         -2.7406722236       -4.6855858086       -2.9989739295
 H         -1.8123518009        1.5885004584       -2.4285858339
 H         -0.7296569078        3.8284925275       -2.3047141896
 H          1.9455848736        4.2663956428       -1.7277795699
 H          3.0621621353        2.0470996224       -1.6278147091
  85
       -134.64564327
 C          4.3147215895       -4.8111659479       -0.0868480633
 C          3.1377189124       -4.4865052531        0.8324677384
 N          3.0440921577       -3.0773824538        1.0978164588
 C          3.6592016085       -2.3939510320        2.1350895249
 C          4.4548621921       -2.8899015182        3.1499218653
 C          4.9742471564       -1.9913434973        4.0754257560
 C          4.7150714668       -0.6306031803        3.9819528408
 C          3.9192736054       -0.1173466835        2.9725659138
 C          3.3712227282       -0.9976310758        2.0406520079
 C          2.5491915928       -0.8707047548        0.8946192436
 C          2.3942467665       -2.1624259223        0.3291773824
 C          1.6193755039       -2.0400424496       -0.8398582413
 C          1.1392244694       -2.9177738964       -1.8179127241
 C          0.3335790822       -2.4198646260       -2.8210223635
 C         -0.0286526391       -1.0769510107       -2.8577287985
 C          0.4539725933       -0.1758495783       -1.9081378477
 C          1.3023481067       -0.6467931994       -0.9300440774
 N          1.9007272976        0.0467844268        0.1256974210
 C          1.7449136989        1.4081287843        0.3667588777
 C          1.8213301564        2.3284085757       -0.6915481713
 C          1.4637797846        3.6381700693       -0.4921779439
 C          1.0227054278        4.0609747132        0.7646943248
 S         -0.1711681978        5.3863064496        0.8124713754
 O         -0.4210663633        5.8110666167        2.1706945935
 O          0.1317699300        6.4103437441       -0.1608842919
 C         -1.4558463730        4.2978839027        0.2193042865
 C         -2.0232084704        3.3955258958        1.1206363716
 C         -2.5151142655        2.1940700087        0.6728576541
 C         -2.4232082187        1.8571937477       -0.6864758166
 N         -2.7011501246        0.5556002274       -1.0977534321
 C         -3.3505482799        0.1705488827       -2.2681823238
 C         -4.0563078033        0.9486596298       -3.1648357712
 C         -4.6478692735        0.3235578269       -4.2546977394
 C         -4.5485399882       -1.0526470372       -4.4396362445
 C         -3.8740382860       -1.8493223786       -3.5363816642
 C         -3.2684118398       -1.2477776886       -2.4321902958
 C         -2.5409826338       -1.7023495457       -1.3091830285
 C         -2.2206417263       -0.5806037158       -0.5073145530
 C         -1.4581335273       -1.0441196925        0.5922006213
 C         -0.8456830085       -0.4553919812        1.6977425008
 C         -0.1538913992       -1.2623206157        2.5833185382
 C         -0.0509444457       -2.6317166373        2.3842268366
 C         -0.6502038058       -3.2454968821        1.2895375710
 C         -1.3549911066       -2.4563153170        0.4005887407
 N         -2.0133660241       -2.8284665510       -0.7589024906
 C         -2.2147683956       -4.1702938827       -1.2323974942
 C         -3.5038769711       -4.7733039084       -0.6745158865
 C         -1.9533657954        2.8103737812       -1.6017431043
 C         -1.4692228903        4.0128783245       -1.1479570734
 C          1.0689166240        3.1778761472        1.8458155489
 C          1.4508996496        1.8726859844        1.6580896240
 H          4.3608128437       -5.8806327278       -0.2729838255
 H          5.2487725095       -4.4941941880        0.3711674690
 H          4.2029465978       -4.2930184171       -1.0366825705
 H          2.1994390766       -4.8041363690        0.3684522239
 H          3.2460983378       -5.0144365963        1.7838368330
 H          4.6816268585       -3.9422439248        3.2286077781
 H          5.5979205403       -2.3609197768        4.8749543115
 H          5.1450288803        0.0406993752        4.7098685422
 H          3.7368268400        0.9435200854        2.9001336285
 H          1.4001508754       -3.9653676062       -1.7909223849
 H         -0.0342027780       -3.0842132216       -3.5890974054
 H         -0.6785660368       -0.7204715363       -3.6417375684
 H          0.1609421843        0.8614615208       -1.9414765102
 H          2.1614249176        1.9935566431       -1.6597422732
 H          1.4888232186        4.3548151670       -1.2970042078
 H         -2.0407962580        3.6558089438        2.1670405834
 H         -2.9634271737        1.4887642259        1.3556936905
 H         -4.1613243602        2.0126278731       -3.0188807814
 H         -5.2002266730        0.9167990830       -4.9668886520
 H         -5.0198854592       -1.5040841814       -5.2996107805
 H         -3.8240095614       -2.9184249735       -3.6776082708
 H         -0.9076047895        0.6087777173        1.8540872733
 H          0.3201363321       -0.8226510424        3.4485695479
 H          0.5012895371       -3.2321154528        3.0914459690
 H         -0.5680582477       -4.3133840456        1.1532678687
 H         -2.2548565284       -4.1423773585       -2.3241909776
 H         -1.3550737625       -4.7767643510       -0.9369884966
 H         -3.6360207910       -5.7853461184       -1.0469449821
 H         -4.3595663727       -4.1737670075       -0.9768673390
 H         -3.4679472301       -4.8007407867        0.4121821942
 H         -1.9091570575        2.5666016359       -2.6521981121
 H         -1.0531056341        4.7401829910       -1.8260998362
 H          0.7608126613        3.5386597250        2.8142056190
 H          1.4548829775        1.1754384154        2.4797961679
  85
       -134.64562089
 C          4.3784951758       -4.7629174715       -0.1390635692
 C          3.2146102355       -4.4626211402        0.8049065944
 N          3.1047122710       -3.0565877546        1.0803688689
 C          3.7181170991       -2.3702588777        2.1167874139
 C          4.5243655828       -2.8607276184        3.1260935541
 C          5.0375747055       -1.9598282724        4.0526901058
 C          4.7623783878       -0.6017833378        3.9658008902
 C          3.9561427557       -0.0939018096        2.9619925991
 C          3.4138649776       -0.9769639763        2.0293403377
 C          2.5845339074       -0.8550766748        0.8878888712
 C          2.4411780882       -2.1459731712        0.3182098124
 C          1.6539924797       -2.0282748585       -0.8433516844
 C          1.1751383062       -2.9076362328       -1.8202919461
 C          0.3548512072       -2.4151360293       -2.8141341101
 C         -0.0216903794       -1.0758272799       -2.8438089242
 C          0.4586006514       -0.1731295817       -1.8949602846
 C          1.3199747968       -0.6385363019       -0.9253384628
 N          1.9178584583        0.0572288171        0.1288229029
 C          1.7465584668        1.4147339279        0.3808470024
 C          1.8068287812        2.3444175866       -0.6702485484
 C          1.4398540685        3.6492916911       -0.4568457964
 C          1.0055400183        4.0577170499        0.8073671199
 S         -0.1984371239        5.3723904730        0.8768297491
 O         -0.4396979793        5.7844354830        2.2405517401
 O          0.0869133033        6.4073403926       -0.0903360823
 C         -1.4777362957        4.2780154433        0.2838746671
 C         -1.5057771274        4.0156392041       -1.0877433036
 C         -1.9850090963        2.8166281033       -1.5555154338
 C         -2.4350218687        1.8438479705       -0.6508577000
 N         -2.7170859285        0.5503272489       -1.0841489033
 C         -3.3871860821        0.1913542288       -2.2513119895
 C         -4.1086682383        0.9895535208       -3.1172561673
 C         -4.7211787481        0.3891128217       -4.2092690344
 C         -4.6265591844       -0.9827023306       -4.4264500739
 C         -3.9372884523       -1.7996801925       -3.5530763475
 C         -3.3115330148       -1.2232729311       -2.4466243734
 C         -2.5681039517       -1.7032208717       -1.3447639379
 C         -2.2310627593       -0.5991296266       -0.5251327876
 C         -1.4564139840       -1.0884882137        0.5545001298
 C         -0.8224286578       -0.5239105455        1.6605574520
 C         -0.1245425204       -1.3517460327        2.5214647803
 C         -0.0378200051       -2.7186474535        2.2978374450
 C         -0.6571389221       -3.3081991603        1.2012748848
 C         -1.3657967689       -2.4974488925        0.3350336191
 N         -2.0413303602       -2.8430971989       -0.8229733720
 C         -2.2503368830       -4.1734069498       -1.3250912237
 C         -3.5419117316       -4.7823202765       -0.7794844333
 C         -2.5078209190        2.1549160919        0.7158418880
 C         -2.0214224042        3.3532783855        1.1774621564
 C          1.0644337276        3.1649350158        1.8801470825
 C          1.4544456495        1.8644052882        1.6780219249
 H          4.4338187921       -5.8296052826       -0.3382138342
 H          5.3168752150       -4.4397931873        0.3056423257
 H          4.2431148807       -4.2354885568       -1.0806914988
 H          2.2722442955       -4.7918490430        0.3572602180
 H          3.3496215420       -4.9942302703        1.7506682278
 H          4.7636436463       -3.9106399849        3.1997908859
 H          5.6694955337       -2.3251292404        4.8476529382
 H          5.1884079844        0.0717509744        4.6939925565
 H          3.7610631407        0.9650592012        2.8944603225
 H          1.4471263700       -3.9525327973       -1.7988229550
 H         -0.0125590121       -3.0812911695       -3.5808354896
 H         -0.6825196475       -0.7239614129       -3.6207886664
 H          0.1535607668        0.8609712915       -1.9214026272
 H          2.1426376535        2.0205831085       -1.6437023395
 H          1.4521639769        4.3729818305       -1.2556469654
 H         -1.1051808267        4.7582358649       -1.7585907848
 H         -1.9526250288        2.5911833693       -2.6104687560
 H         -4.2100118181        2.0500224516       -2.9457677739
 H         -5.2863484261        0.9983534807       -4.8974982938
 H         -5.1140451971       -1.4145919015       -5.2874715319
 H         -3.8914434647       -2.8654700179       -3.7185740745
 H         -0.8729287321        0.5379984015        1.8358181299
 H          0.3680471734       -0.9309110257        3.3856950413
 H          0.5189146940       -3.3361164574        2.9866667363
 H         -0.5855228301       -4.3741331490        1.0448546215
 H         -2.2916924904       -4.1219907206       -2.4161866604
 H         -1.3931644651       -4.7902214680       -1.0439376752
 H         -3.5076434565       -4.8275515102        0.3066250108
 H         -3.6753444639       -5.7878464410       -1.1686960223
 H         -4.3957770139       -4.1759390977       -1.0733098843
 H         -2.9384974272        1.4332190318        1.3928297461
 H         -2.0264052356        3.5947540398        2.2284512803
 H          0.7600840732        3.5149788886        2.8536465561
 H          1.4686393524        1.1595664044        2.4933322422
  85
       -134.64558857
 C          4.2455706424       -4.8266721605       -0.1627863782
 C          3.0534509244       -4.5119645912        0.7404210678
 N          2.9701738807       -3.1092660512        1.0404216943
 C          3.5690265838       -2.4590694009        2.1077813132
 C          4.3313480326       -2.9910759009        3.1296915523
 C          4.8374532152       -2.1233205702        4.0913658747
 C          4.5989180613       -0.7573740866        4.0248099793
 C          3.8369265800       -0.2082420994        3.0080689919
 C          3.3003675020       -1.0571296339        2.0408971148
 C          2.5053799882       -0.8917131264        0.8806331407
 C          2.3465607481       -2.1683476273        0.2819228826
 C          1.5939114552       -2.0115493525       -0.8968868731
 C          1.1215771702       -2.8622767744       -1.9024050831
 C          0.3335246534       -2.3346929646       -2.9043690292
 C         -0.0208131046       -0.9894735783       -2.9114524929
 C          0.4572657477       -0.1142445944       -1.9353895935
 C          1.2908981583       -0.6137993999       -0.9591392788
 N          1.8806899495        0.0503883371        0.1208333817
 C          1.7398793379        1.4102294356        0.3780096512
 C          1.8345878560        2.3407199538       -0.6703694991
 C          1.4809515960        3.6503650957       -0.4633609470
 C          1.0287772627        4.0641179442        0.7923579144
 S         -0.1625064816        5.3920492216        0.8389865627
 O         -0.4169709152        5.8157299394        2.1966604378
 O          0.1466524744        6.4168585631       -0.1315504709
 C         -1.4481450022        4.3077602170        0.2391321019
 C         -1.4562427232        4.0229021576       -1.1280649402
 C         -1.9402801142        2.8209990085       -1.5839438501
 C         -2.4143456932        1.8680687259       -0.6703869286
 N         -2.6817754860        0.5639436333       -1.0809466509
 C         -3.3093677558        0.1725703587       -2.2611266948
 C         -4.0165513767        0.9422253971       -3.1638860531
 C         -4.5825477043        0.3116885743       -4.2640691963
 C         -4.4567866583       -1.0617125119       -4.4533138679
 C         -3.7810742145       -1.8505757315       -3.5442277617
 C         -3.2009653630       -1.2433488958       -2.4296439631
 C         -2.4807810682       -1.6901373624       -1.2990190849
 C         -2.1903047230       -0.5670180247       -0.4883114788
 C         -1.4373227550       -1.0230206768        0.6210518956
 C         -0.8546874054       -0.4309626520        1.7408542450
 C         -0.1644245441       -1.2309528851        2.6339249748
 C         -0.0328259767       -2.5967347316        2.4284097814
 C         -0.6017057549       -3.2139063894        1.3193139524
 C         -1.3065392265       -2.4322308815        0.4239013535
 N         -1.9403221160       -2.8095561738       -0.7472202867
 C         -2.1143221823       -4.1528781741       -1.2272007203
 C         -3.4040477860       -4.7760518749       -0.6938589569
 C         -2.5161459687        2.2072917410        0.6874361749
 C         -2.0244099452        3.4082093484        1.1374339145
 C          1.0633522523        3.1719693933        1.8665449335
 C          1.4391092957        1.8659617549        1.6707910396
 H          4.1610332476       -4.2797781556       -1.0992472021
 H          4.2813717011       -5.8908573342       -0.3792231763
 H          5.1736395284       -4.5360680730        0.3239226281
 H          2.1219741008       -4.8060566827        0.2481208873
 H          3.1351517859       -5.0661130614        1.6793947998
 H          4.5414208386       -4.0482178018        3.1876274628
 H          5.4339794741       -2.5214053841        4.8978388683
 H          5.0182110327       -0.1101956273        4.7801931145
 H          3.6720725341        0.8566929962        2.9578055754
 H          1.3755682669       -3.9118958994       -1.8975644520
 H         -0.0290976968       -2.9773357825       -3.6930660103
 H         -0.6603455981       -0.6099580762       -3.6931889683
 H          0.1703382004        0.9251723177       -1.9474629736
 H          2.1835656681        2.0131813135       -1.6379029043
 H          1.5167657211        4.3736385879       -1.2619144996
 H         -1.0349369779        4.7488816223       -1.8044060203
 H         -1.8921168966        2.5771745009       -2.6341197348
 H         -4.1415330354        2.0036477947       -3.0151638066
 H         -5.1359461634        0.8981858721       -4.9809833414
 H         -4.9088338150       -1.5175419865       -5.3213427098
 H         -3.7101083434       -2.9179602457       -3.6891746326
 H         -0.9375263996        0.6308775002        1.9027229888
 H          0.2853509624       -0.7884736487        3.5105867390
 H          0.5182232147       -3.1913930831        3.1413495045
 H         -0.4989504160       -4.2795042769        1.1791250679
 H         -2.1351262271       -4.1227546336       -2.3192943167
 H         -1.2516453190       -4.7479650861       -0.9178686836
 H         -3.3859488856       -4.8064047373        0.3931854923
 H         -3.5149429642       -5.7887956449       -1.0716351473
 H         -4.2627296750       -4.1875887220       -1.0091519245
 H         -2.9710838479        1.5039689716        1.3678030088
 H         -2.0477694519        3.6691511546        2.1835271234
 H          0.7503502428        3.5262324989        2.8358012913
 H          1.4320783106        1.1620346036        2.4865134625
  85
       -134.64340950
 C          4.4121715803       -4.7641271981       -0.1340577351
 C          3.2661337634       -4.4424016809        0.8246899307
 N          3.1776314616       -3.0330580504        1.0909990886
 C          3.8192524273       -2.3462951560        2.1111000500
 C          4.6438239602       -2.8381519331        3.1040760706
 C          5.1809352692       -1.9361381443        4.0178829279
 C          4.9094753898       -0.5779159143        3.9338867135
 C          4.0845335883       -0.0682875031        2.9450769235
 C          3.5210995967       -0.9516552648        2.0254736176
 C          2.6678933127       -0.8283817579        0.9020716178
 C          2.5035424845       -2.1221194350        0.3398976432
 C          1.6830824758       -2.0048559895       -0.7986849402
 C          1.1827112189       -2.8804282252       -1.7673264649
 C          0.3342222835       -2.3842127756       -2.7363257159
 C         -0.0532350462       -1.0487115209       -2.7445007224
 C          0.4547861599       -0.1479592562       -1.8103043774
 C          1.3491296766       -0.6155766872       -0.8722455020
 N          1.9840422514        0.0820429260        0.1596667077
 C          1.8249215899        1.4434053080        0.3966205888
 C          1.8732038074        2.3535993307       -0.6732916322
 C          1.5035034423        3.6598156636       -0.4821844744
 C          1.0725995970        4.0888464745        0.7780976020
 S         -0.1538081514        5.3808970571        0.8200746888
 O         -0.4031082972        5.8181923806        2.1746784719
 O          0.1113795613        6.4001359184       -0.1695490920
 C         -1.4165700637        4.2547169763        0.2517771468
 C         -1.4698787382        3.9794926320       -1.1166032985
 C         -1.9733453597        2.7821879760       -1.5651310099
 C         -2.4190175523        1.8233755808       -0.6445880506
 N         -2.7699157140        0.5396808132       -1.0602008381
 C         -3.5602192997        0.1968211625       -2.1526001366
 C         -4.2657658115        1.0196779255       -3.0097392424
 C         -5.0064232022        0.4308186613       -4.0249693335
 C         -5.0502214046       -0.9523901317       -4.1803582975
 C         -4.3779978441       -1.7904438689       -3.3142014294
 C         -3.6321448791       -1.2263035437       -2.2785138512
 C         -2.8546935426       -1.7260388336       -1.2093777933
 C         -2.3416029919       -0.6250270486       -0.4878286841
 C         -1.5232777523       -1.1360424305        0.5493196268
 C         -0.7460657776       -0.5813447063        1.5643817118
 C         -0.0471656700       -1.4297778339        2.4025859324
 C         -0.0970927352       -2.8084439004        2.2398254777
 C         -0.8679906670       -3.3881608438        1.2404754259
 C         -1.5891594236       -2.5555450015        0.4046303515
 N         -2.4253836187       -2.8900982657       -0.6476055490
 C         -2.8836229513       -4.2108728411       -0.9903349570
 C         -2.0866319448       -4.8358198325       -2.1325139604
 C         -2.4412121768        2.1375757707        0.7234845245
 C         -1.9366009853        3.3355026710        1.1651202562
 C          1.1453105663        3.2166738178        1.8683382500
 C          1.5414883293        1.9150785741        1.6888673308
 H          4.4528108234       -5.8332489746       -0.3235071621
 H          5.3607847753       -4.4470842970        0.2930773766
 H          4.2682459007       -4.2444145128       -1.0787258501
 H          2.3127269589       -4.7631372203        0.3944113521
 H          3.4093744203       -4.9683420021        1.7725232415
 H          4.8787832091       -3.8890546374        3.1767538304
 H          5.8273069211       -2.3028498607        4.8004050712
 H          5.3524105628        0.0954737835        4.6520272000
 H          3.8907828483        0.9910282413        2.8791645016
 H          1.4634861482       -3.9233195923       -1.7611726082
 H         -0.0421857337       -3.0440684560       -3.5032525353
 H         -0.7477185401       -0.6989748351       -3.4929989342
 H          0.1473015708        0.8857024836       -1.8212414509
 H          2.2009839628        2.0100943807       -1.6428322899
 H          1.5057962509        4.3692144518       -1.2937549760
 H         -1.0777855642        4.7138324340       -1.8014882324
 H         -1.9709274541        2.5497804742       -2.6192945384
 H         -4.2554560670        2.0917363879       -2.8885434249
 H         -5.5610354814        1.0588416718       -4.7049693294
 H         -5.6303839891       -1.3739357390       -4.9873349897
 H         -4.4304419923       -2.8622027668       -3.4335017997
 H         -0.6916462908        0.4883684445        1.6860715767
 H          0.5581088084       -1.0188079948        3.1972280467
 H          0.4720254544       -3.4418067017        2.9038576309
 H         -0.8963469554       -4.4616681329        1.1280375955
 H         -2.8137746013       -4.8391456164       -0.0980221145
 H         -3.9387265354       -4.1386107440       -1.2736483571
 H         -2.1686912156       -4.2229749930       -3.0265940576
 H         -2.4716064979       -5.8284245009       -2.3511351140
 H         -1.0370068707       -4.9156582023       -1.8618291684
 H         -2.8532651526        1.4204743186        1.4169839662
 H         -1.9129729012        3.5832251555        2.2142714201
 H          0.8449504118        3.5835016664        2.8368581602
 H          1.5664452078        1.2263095762        2.5182700600
  85
       -134.64335160
 C          4.5023856854       -4.7363462357       -0.0895985213
 C          3.3446238950       -4.4195832426        0.8563192831
 N          3.2384719193       -3.0092653494        1.1112452476
 C          3.8816085449       -2.3074850572        2.1206357819
 C          4.7211341159       -2.7823318819        3.1093179356
 C          5.2584344640       -1.8666414347        4.0097333977
 C          4.9720507986       -0.5122099263        3.9169401371
 C          4.1311565010       -0.0195961227        2.9327430340
 C          3.5681429282       -0.9169291672        2.0264201138
 C          2.7036655370       -0.8121134657        0.9099628990
 C          2.5487305994       -2.1117153042        0.3579906471
 C          1.7204929021       -2.0097232901       -0.7768179474
 C          1.2212232024       -2.8961975945       -1.7360034876
 C          0.3645132475       -2.4132257635       -2.7045761869
 C         -0.0324561589       -1.0805674831       -2.7217736756
 C          0.4721816720       -0.1694016483       -1.7962310019
 C          1.3737561231       -0.6238915903       -0.8586160139
 N          2.0065542083        0.0861452024        0.1658116664
 C          1.8330450535        1.4456040061        0.4020648473
 C          1.8715411008        2.3574065807       -0.6669251372
 C          1.4944673340        3.6607455402       -0.4720768319
 C          1.0649928078        4.0850503742        0.7908094490
 S         -0.1693249201        5.3684640975        0.8373826739
 O         -0.4210453911        5.8001322062        2.1934421858
 O          0.0883406685        6.3925692686       -0.1493031317
 C         -1.4256827701        4.2366043890        0.2663224161
 C         -1.4833938472        3.9698006328       -1.1035714608
 C         -1.9885989169        2.7751795630       -1.5574488249
 C         -2.4308190060        1.8109139510       -0.6411873593
 N         -2.7926294578        0.5330040332       -1.0662718026
 C         -3.6046433150        0.2077128278       -2.1476093030
 C         -4.3203689062        1.0458971087       -2.9814211732
 C         -5.0872056917        0.4742025864       -3.9865747127
 C         -5.1449841560       -0.9069169838       -4.1559369226
 C         -4.4612048577       -1.7597958342       -3.3135316198
 C         -3.6905170607       -1.2132778726       -2.2867501190
 C         -2.9000055936       -1.7299431543       -1.2347986674
 C         -2.3672443892       -0.6405698801       -0.5107225773
 C         -1.5394229466       -1.1679290800        0.5107496607
 C         -0.7452047387       -0.6288170674        1.5208425545
 C         -0.0466362802       -1.4907411749        2.3449902045
 C         -0.1144401667       -2.8678755298        2.1732991941
 C         -0.9017212486       -3.4319513873        1.1784648522
 C         -1.6213744174       -2.5853274127        0.3552230485
 N         -2.4731944825       -2.9026649686       -0.6895255907
 C         -2.9328748353       -4.2179160979       -1.0504058838
 C         -2.1205448039       -4.8358928594       -2.1856799401
 C         -2.4431682002        2.1139993159        0.7293929296
 C         -1.9379480386        3.3097453556        1.1763202470
 C          1.1436110970        3.2106270756        1.8791722132
 C          1.5468650166        1.9119923951        1.6959412425
 H          5.4413081012       -4.3897314709        0.3360924726
 H          4.3524110762       -4.2392108910       -1.0452961705
 H          4.5675942143       -5.8080775608       -0.2568653650
 H          2.3987630263       -4.7544129240        0.4206437134
 H          3.4861749944       -4.9365503892        1.8094165569
 H          4.9696069529       -3.8297891548        3.1871173549
 H          5.9182186567       -2.2196852050        4.7874249451
 H          5.4152661621        0.1719711934        4.6246287174
 H          3.9231844310        1.0367151529        2.8614057408
 H          1.5086703523       -3.9372146137       -1.7232874894
 H         -0.0095580100       -3.0814892832       -3.4653236079
 H         -0.7328115784       -0.7417670639       -3.4698602556
 H          0.1562867120        0.8617098316       -1.8122259167
 H          2.1981348280        2.0173030497       -1.6380706769
 H          1.4889501335        4.3717677510       -1.2821564602
 H         -1.0951390140        4.7090477247       -1.7853063671
 H         -1.9919573435        2.5492800258       -2.6130950859
 H         -4.2976819677        2.1164405539       -2.8484809716
 H         -5.6523156446        1.1137927978       -4.6468989464
 H         -5.7472214875       -1.3151287429       -4.9534127136
 H         -4.5252303387       -2.8296213754       -3.4438061009
 H         -0.6790257102        0.4394981082        1.6503364469
 H          0.5713271331       -1.0919595756        3.1360972303
 H          0.4532818515       -3.5123802760        2.8277619635
 H         -0.9427186364       -4.5042154633        1.0582694712
 H         -2.8798366103       -4.8549152310       -0.1629727914
 H         -3.9828578202       -4.1374196865       -1.3490681337
 H         -2.1895537345       -4.2164320968       -3.0764788387
 H         -2.5033436708       -5.8264263893       -2.4169830126
 H         -1.0750367623       -4.9188759081       -1.9000566708
 H         -2.8488089524        1.3908226172        1.4203988526
 H         -1.9080682593        3.5500142978        2.2270271391
 H          0.8438187283        3.5741305778        2.8490976335
 H          1.5803705722        1.2217286964        2.5239678239
