  68
       -116.82983500
 C          2.0942091602        3.9151455071        2.7853657302
 C          1.2731539803        3.2937045899        1.8486596071
 C          1.7149635863        2.2102913393        1.1158060605
 C          3.0029620064        1.7348221547        1.3358451866
 C          3.8385276214        2.4136518493        2.2476152052
 C          3.3953585831        3.4932197388        2.9901988620
 O          5.0934300652        1.8930880621        2.2603985808
 C          5.1019827611        0.8825092584        1.3503429975
 C          6.2292173669        0.1559953717        0.9854961382
 C          6.1024018117       -0.7812747277       -0.0185787545
 C          4.8529518133       -1.0221058888       -0.5862550234
 C          4.4286462683       -1.9103654844       -1.6356709160
 C          5.1021651792       -2.8138973295       -2.4465961317
 C          4.3783392023       -3.5292289186       -3.3803015693
 C          3.0029539145       -3.3560789100       -3.5071490999
 C          2.3111266681       -2.4633704533       -2.7085564257
 C          3.0360621306       -1.7411894845       -1.7768236883
 N          2.5911798356       -0.8090028489       -0.8401547542
 C          1.2753116156       -0.7261880081       -0.4157898671
 C          0.9367124993       -0.7175873112        0.9445806877
 N         -0.3172085553       -0.7371526429        1.3420148939
 C         -1.2736477857       -0.7295847945        0.4121869337
 N         -2.5896380869       -0.8152040860        0.8359975208
 C         -3.0335028535       -1.7471247342        1.7730208708
 C         -2.3075836882       -2.4704027195        2.7032298437
 C         -2.9989589835       -3.3624812338        3.5028138925
 C         -4.3748206763       -3.5339812782        3.3785998462
 C         -5.0995431258       -2.8179152307        2.4461525723
 C         -4.4264445812       -1.9150233965        1.6341743955
 C         -4.8516507663       -1.0259917633        0.5858943915
 C         -6.1023613540       -0.7830854603        0.0219800246
 C         -6.2309752953        0.1569660350       -0.9790965609
 C         -5.1038351786        0.8830925160       -1.3451100446
 O         -5.0980954840        1.8974173189       -2.2509054855
 C         -3.8428264450        2.4167223181       -2.2410898038
 C         -3.4030004895        3.5001640528       -2.9799548343
 C         -2.1001391863        3.9192120194       -2.7808368217
 C         -1.2743470279        3.2909310083       -1.8531417340
 C         -1.7133703179        2.2045607389       -1.1230117992
 C         -3.0036305550        1.7324299563       -1.3367385401
 C         -3.8261431825        0.6921434417       -0.7758586883
 C         -3.6947447714       -0.3449982239        0.1477565406
 C         -0.9352051208       -0.7254327637       -0.9481747536
 N          0.3187474539       -0.7414344640       -1.3455475069
 C          3.6958643386       -0.3403877461       -0.1499218387
 C          3.8263132522        0.6952712588        0.7752575988
 H          1.7154063019        4.7554245126        3.3469886284
 H          0.2749352906        3.6720415027        1.6859227251
 H          1.0837261442        1.7637864632        0.3650931741
 H          4.0523373104        3.9884929301        3.6868418170
 H          7.1747786745        0.3541890761        1.4624426731
 H          6.9634751683       -1.3312692246       -0.3636086018
 H          6.1681101098       -2.9501552332       -2.3461980833
 H          4.8838379465       -4.2336918816       -4.0238947701
 H          2.4640131433       -3.9284654506       -4.2473147413
 H          1.2473353657       -2.3224608983       -2.8104346398
 H          1.6865939544       -0.7290916225        1.7221883568
 H         -1.2435201808       -2.3303235553        2.8035724252
 H         -2.4595596037       -3.9350975877        4.2423747466
 H         -4.8799984177       -4.2373294738        4.0237002477
 H         -6.1657624966       -2.9531131365        2.3475477502
 H         -6.9631375957       -1.3322317299        0.3691662821
 H         -7.1777130064        0.3585819998       -1.4522725471
 H         -4.0634593760        3.9992961785       -3.6704106083
 H         -1.7235415845        4.7619836169       -3.3401082871
 H         -0.2735648230        3.6650780345       -1.6965788947
 H         -1.0773295176        1.7526905373       -0.3795881912
 H         -1.6854161308       -0.7427771083       -1.7254104657
  68
       -116.82959295
 C          1.9897789264        3.6466235886        3.1009447222
 C          1.1780192209        3.0805523135        2.1222837506
 C          1.6436577975        2.0760779482        1.2976065421
 C          2.9461373028        1.6195965063        1.4681676716
 C          3.7716243717        2.2498063150        2.4231163550
 C          3.3057057732        3.2507747786        3.2562779940
 O          5.0421595782        1.7711018696        2.3809363267
 C          5.0698604364        0.8351232028        1.3949244574
 C          6.2161343892        0.1787927500        0.9631624106
 C          6.1067756824       -0.6826652834       -0.1083161575
 C          4.8573551726       -0.9255340436       -0.6746620251
 C          4.4507654785       -1.7489586461       -1.7820303784
 C          5.1484184005       -2.5549730081       -2.6714263215
 C          4.4399356095       -3.2242682142       -3.6499245931
 C          3.0564052267       -3.1021831232       -3.7423672010
 C          2.3408475720       -2.3070202606       -2.8652877629
 C          3.0501823525       -1.6288693306       -1.8891824013
 N          2.5849492573       -0.7890142599       -0.8777113003
 C          1.2730434291       -0.7710713100       -0.4369285922
 C          0.9500087474       -0.8045989611        0.9268331427
 N         -0.2988971300       -0.8086428198        1.3400656486
 C         -1.2672904664       -0.7711131316        0.4228722897
 N         -2.5780316817       -0.7912378253        0.8669414493
 C         -3.0365468035       -1.6314034309        1.8812932988
 C         -2.3207884385       -2.3143837406        2.8494369467
 C         -3.0309811441       -3.1087983207        3.7314453483
 C         -4.4157675404       -3.2255215058        3.6519365328
 C         -5.1307254382       -2.5517383349        2.6813342366
 C         -4.4383070681       -1.7467457698        1.7868883550
 C         -4.8522118762       -0.9199734790        0.6849259883
 C         -6.1068152091       -0.6718179762        0.1326531076
 C         -6.2246378890        0.1926009741       -0.9353751150
 C         -5.0805820633        0.8457627392       -1.3775774032
 O         -5.0614032006        1.7847542351       -2.3607970660
 C         -3.7903333941        2.2603591637       -2.4154141081
 C         -3.3319990725        3.2637096015       -3.2498722366
 C         -2.0136310511        3.6563801946       -3.1080464021
 C         -1.1919747317        3.0843326638       -2.1412332307
 C         -1.6503712219        2.0777221013       -1.3150811741
 C         -2.9557439471        1.6245929494       -1.4720541591
 C         -3.7975361883        0.6550727619       -0.8189113477
 C         -3.6803272725       -0.3200104614        0.1730583762
 C         -0.9443461745       -0.8019267622       -0.9408870414
 N          0.3048671634       -0.8061706773       -1.3543121921
 C          3.6826873331       -0.3226420630       -0.1732773491
 C          3.7926186975        0.6499856801        0.8216244222
 H          1.5919701982        4.4242548919        3.7348760508
 H          0.1667626798        3.4389325140        2.0010574871
 H          1.0168707571        1.6778882173        0.5168710927
 H          3.9562488604        3.7066602354        3.9850189786
 H          7.1607020343        0.3735026642        1.4434351159
 H          6.9808649031       -1.1728558624       -0.5066002721
 H          6.2209057162       -2.6509569156       -2.5973407234
 H          4.9639026075       -3.8511967428       -4.3559352283
 H          2.5294823060       -3.6364847454       -4.5187690215
 H          1.2706738960       -2.2052144821       -2.9410395202
 H          1.7082596852       -0.8585712402        1.6943110751
 H         -1.2496230861       -2.2171044041        2.9156640731
 H         -2.4986303879       -3.6467310856        4.5016150776
 H         -4.9354054804       -3.8516980076        4.3618279523
 H         -6.2042306653       -2.6433544409        2.6171841023
 H         -6.9781641008       -1.1596825612        0.5396710893
 H         -7.1735767197        0.3924709010       -1.4047806163
 H         -3.9901081183        3.7238195658       -3.9691281044
 H         -1.6216172235        4.4361183080       -3.7430264563
 H         -0.1786714979        3.4401755283       -2.0300279453
 H         -1.0152928539        1.6752054587       -0.5433952086
 H         -1.7027337906       -0.8530987796       -1.7084554966
  68
       -116.82942219
 C          1.9914932230        3.5687245486        3.2046249891
 C          1.1757623589        3.0256083419        2.2163327646
 C          1.6398406937        2.0454572088        1.3619558105
 C          2.9449309522        1.5890078242        1.5124801935
 C          3.7743994006        2.1985049588        2.4774598692
 C          3.3101960214        3.1749370578        3.3400992627
 O          5.0466790288        1.7270370200        2.4142533699
 C          5.0714267886        0.8161860715        1.4050417697
 C          6.2180049791        0.1769897730        0.9492716854
 C          6.1051576443       -0.6590350756       -0.1417275901
 C          4.8525247216       -0.8962411142       -0.7031706962
 C          4.4425940025       -1.6977073848       -1.8252724137
 C          5.1391257589       -2.4772777015       -2.7387638279
 C          4.4279029156       -3.1288963689       -3.7271262738
 C          3.0428420802       -3.0153682333       -3.8054384997
 C          2.3284509259       -2.2464779993       -2.9043195183
 C          3.0403904656       -1.5857489943       -1.9180728458
 N          2.5776672586       -0.7725490165       -0.8836503513
 C          1.2686151488       -0.7702281259       -0.4352122759
 C          0.9511247337       -0.8130638517        0.9295588567
 N         -0.2962066523       -0.8137939342        1.3480878506
 C         -1.2684206306       -0.7713606391        0.4351920492
 N         -2.5776047227       -0.7751492508        0.8833260313
 C         -3.0402789239       -1.5900957877        1.9164225859
 C         -2.3283623904       -2.2509266507        2.9026320961
 C         -3.0426669597       -3.0210990484        3.8027304581
 C         -4.4275528071       -3.1360232662        3.7232276000
 C         -5.1387179848       -2.4843770203        2.7348230984
 C         -4.4423107718       -1.7033157039        1.8224983155
 C         -4.8522136533       -0.9012592121        0.7007819609
 C         -6.1046014565       -0.6647213194        0.1385265082
 C         -6.2174282289        0.1726356185       -0.9514695249
 C         -5.0711754743        0.8136709500       -1.4054276056
 O         -5.0465332688        1.7260476278       -2.4132910512
 C         -3.7745780145        2.1986207159       -2.4750362765
 C         -3.3106292820        3.1766618358       -3.3359782895
 C         -1.9924232259        3.5715464927       -3.1988983096
 C         -1.1769408175        3.0278621264       -2.2107349251
 C         -1.6407833340        2.0462490658       -1.3579696449
 C         -2.9453531604        1.5887910511       -1.5101003961
 C         -3.7907561168        0.6365579216       -0.8363726526
 C         -3.6779412523       -0.3157778212        0.1779515316
 C         -0.9508825304       -0.8129272963       -0.9295816550
 N          0.2964320666       -0.8126172934       -1.3480865908
 C          3.6780368041       -0.3126666546       -0.1786685956
 C          3.7907412543        0.6385382247        0.8367533433
 H          1.5947222585        4.3274149632        3.8617660429
 H          0.1625988353        3.3834708633        2.1108225136
 H          1.0093397898        1.6670397652        0.5743555988
 H          3.9640671062        3.6142746222        4.0760143769
 H          7.1648781235        0.3646639619        1.4278018036
 H          6.9786034109       -1.1352338763       -0.5579683700
 H          6.2129908606       -2.5656280788       -2.6761849692
 H          4.9509279754       -3.7340001955       -4.4526153193
 H          2.5134820982       -3.5351508954       -4.5900080247
 H          1.2570480882       -2.1517698749       -2.9690229371
 H          1.7120031326       -0.8766777235        1.6936000460
 H         -1.2571184505       -2.1549848598        2.9682242251
 H         -2.5133898378       -3.5409977382        4.5872776268
 H         -4.9504316419       -3.7428993889        4.4473591230
 H         -6.2124574230       -2.5736583950        2.6714697627
 H         -6.9779701279       -1.1420291336        0.5536841782
 H         -7.1642605165        0.3606881913       -1.4299397536
 H         -3.9643884087        3.6165437770       -4.0716597849
 H         -1.5957954923        4.3313494920       -3.8548322094
 H         -0.1637256830        3.3854814942       -2.1049149412
 H         -1.0103364633        1.6669221436       -0.5707906854
 H         -1.7116673526       -0.8778761439       -1.6935813198
  68
       -116.82827625
 C          2.3754258427        4.3615987415        2.1881415801
 C          1.4972082574        3.6276200894        1.3960111759
 C          1.8695539003        2.4201492176        0.8390153863
 C          3.1465404281        1.9322302332        1.0944190896
 C          4.0326896207        2.7072575254        1.8725365337
 C          3.6618722412        3.9169522103        2.4313078315
 O          5.2596204569        2.1314479044        1.9592614954
 C          5.2021988492        0.9874576682        1.2270795366
 C          6.2849621493        0.1488248620        0.9895310537
 C          6.1002291411       -0.9313389713        0.1525669891
 C          4.8390902549       -1.1813721103       -0.3845774267
 C          4.3656606313       -2.1939217916       -1.2900127462
 C          4.9772163250       -3.2669899211       -1.9247227889
 C          4.2107956994       -4.0744102540       -2.7419963187
 C          2.8539105576       -3.8249570502       -2.9292899099
 C          2.2238519431       -2.7630199768       -2.3065509568
 C          2.9916501744       -1.9513240090       -1.4899429608
 N          2.6039374892       -0.8542335872       -0.7231471501
 C          1.2839786668       -0.6414815590       -0.3531471341
 C          0.8956748098       -0.5640202048        0.9921486112
 N         -0.3731358535       -0.6142631600        1.3336057358
 C         -1.2913071760       -0.6478353919        0.3685999206
 N         -2.6120479744       -0.8627781702        0.7343540241
 C         -3.0055238056       -1.9620289029        1.4950427008
 C         -2.2442597623       -2.7733716648        2.3179825398
 C         -2.8785128347       -3.8375757921        2.9327094267
 C         -4.2329669691       -4.0892889186        2.7313309466
 C         -4.9927609569       -3.2822728944        1.9073948450
 C         -4.3771088532       -2.2069216372        1.2806040285
 C         -4.8434132994       -1.1939183946        0.3717342687
 C         -6.0980399630       -0.9459011130       -0.1815312020
 C         -6.2739356018        0.1334425976       -1.0216818770
 C         -5.1901695891        0.9746037805       -1.2456320987
 O         -5.2386392806        2.1173137765       -1.9806300709
 C         -4.0136715950        2.6949728414       -1.8775815253
 C         -3.6352191169        3.9033522043       -2.4340646215
 C         -2.3527178083        4.3494278338       -2.1731333541
 C         -1.4859862793        3.6190072651       -1.3653045552
 C         -1.8657970458        2.4129070911       -0.8105593121
 C         -3.1379747789        1.9228439220       -1.0850093929
 C         -3.9076192850        0.7708400206       -0.6921505639
 C         -3.7285993574       -0.3781312532        0.0777857996
 C         -0.9032356225       -0.5643797491       -0.9765370966
 N          0.3654688032       -0.6082524407       -1.3180011774
 C          3.7258667446       -0.3679930979       -0.0771482054
 C          3.9123545591        0.7809460269        0.6914698778
 H          2.0517927686        5.3025190148        2.6063006511
 H          0.5059082300        4.0139965396        1.2113329051
 H          1.1903075314        1.8823582450        0.1975376801
 H          4.3612241479        4.4873476209        3.0209728273
 H          7.2426079675        0.3691241321        1.4314044379
 H          6.9259613897       -1.5805092030       -0.0920406717
 H          6.0280945108       -3.4636953841       -1.7769993796
 H          4.6673978668       -4.9134760908       -3.2454021298
 H          2.2807746860       -4.4736417170       -3.5746883496
 H          1.1742517016       -2.5652101817       -2.4558271926
 H          1.6134471327       -0.5050694910        1.7976382722
 H         -1.1965734938       -2.5733650105        2.4776169537
 H         -2.3108900236       -4.4860339980        3.5831954200
 H         -4.6931114103       -4.9298666970        3.2290035873
 H         -6.0417880311       -3.4807289587        1.7491282920
 H         -6.9253966016       -1.5975091648        0.0507648799
 H         -7.2259959991        0.3504429325       -1.4770825450
 H         -4.3258527254        4.4719616225       -3.0355519805
 H         -2.0234683323        5.2892872455       -2.5892175621
 H         -0.4984245738        4.0074181193       -1.1655447978
 H         -1.1966318189        1.8780291903       -0.1562236081
 H         -1.6210381167       -0.5064623178       -1.7820302158
  68
       -116.82790540
 C          2.3643562959        4.3808457271        2.1322114565
 C          1.4892934873        3.6355117994        1.3473395317
 C          1.8677822366        2.4259806695        0.7989494050
 C          3.1471021218        1.9460943974        1.0580330558
 C          4.0298440015        2.7326511194        1.8284416245
 C          3.6535222765        3.9452936919        2.3770950116
 O          5.2586294442        2.1622303111        1.9223711564
 C          5.2052175721        1.0088994989        1.2048385234
 C          6.2898186391        0.1680454572        0.9842926074
 C          6.1077457859       -0.9285414663        0.1685049206
 C          4.8478068705       -1.1900251163       -0.3659583807
 C          4.3762584382       -2.2255190785       -1.2458756478
 C          4.9877378458       -3.3183730426       -1.8459833163
 C          4.2217815868       -4.1498227733       -2.6391489015
 C          2.8657236836       -3.9040649171       -2.8373397719
 C          2.2360222835       -2.8221611297       -2.2496077700
 C          3.0031196376       -1.9871102512       -1.4561581568
 N          2.6143789984       -0.8693708166       -0.7203910307
 C          1.2925022877       -0.6463202863       -0.3620268906
 C          0.8962047116       -0.5555060816        0.9802386142
 N         -0.3745629942       -0.6058456381        1.3132567353
 C         -1.2867301783       -0.6469414472        0.3430611395
 N         -2.6077983090       -0.8714350953        0.7037652756
 C         -2.9935286250       -1.9845481656        1.4475392185
 C         -2.2241097690       -2.8112842428        2.2474139124
 C         -2.8523319856       -3.8865290184        2.8487948636
 C         -4.2089296014       -4.1342850400        2.6567574854
 C         -4.9768207273       -3.3120048675        1.8558932940
 C         -4.3670772914       -2.2254844299        1.2425196702
 C         -4.8419419488       -1.1954949533        0.3579038990
 C         -6.1041260549       -0.9355041597       -0.1720774653
 C         -6.2914031851        0.1626875103       -0.9844739124
 C         -5.2095053866        1.0067829466       -1.2062481442
 O         -5.2701324593        2.1672380470       -1.9117334215
 C         -4.0428587857        2.7409014061       -1.8174590199
 C         -3.6752220302        3.9638021930       -2.3489556086
 C         -2.3871278976        4.4021265478       -2.1033309729
 C         -1.5036257379        3.6479884300       -1.3365056280
 C         -1.8736014886        2.4284882452       -0.8046803786
 C         -3.1530809777        1.9480857664       -1.0616397189
 C         -3.9177362101        0.7887446645       -0.6799417145
 C         -3.7297098291       -0.3748486241        0.0660643417
 C         -0.8907904420       -0.5657205168       -0.9998107567
 N          0.3802371186       -0.6151618072       -1.3325070009
 C          3.7337377086       -0.3698298895       -0.0800934325
 C          3.9168943453        0.7924103210        0.6693183277
 H          2.0355381550        5.3227611854        2.5440042556
 H          0.4956808309        4.0150186072        1.1612041308
 H          1.1913988274        1.8804848220        0.1609756666
 H          4.3497698437        4.5229642003        2.9633698590
 H          7.2458287113        0.3973383901        1.4250997516
 H          6.9338862741       -1.5830115944       -0.0600783620
 H          6.0377613706       -3.5123742387       -1.6889942313
 H          4.6779169941       -5.0054503183       -3.1143023120
 H          2.2929322154       -4.5720920861       -3.4630274390
 H          1.1869546392       -2.6278535754       -2.4075477262
 H          1.6088239644       -0.4870889454        1.7895145522
 H         -1.1745581879       -2.6152276327        2.4001832268
 H         -2.2781518937       -4.5471807188        3.4809844985
 H         -4.6642070744       -4.9837028742        3.1438029654
 H         -6.0274862481       -3.5072406435        1.7046669520
 H         -6.9288975115       -1.5904841020        0.0601289738
 H         -7.2503449475        0.3927928925       -1.4184537538
 H         -4.3780482240        4.5484627755       -2.9201858091
 H         -2.0653068794        5.3523622737       -2.5013417061
 H         -0.5096298062        4.0277215793       -1.1526473771
 H         -1.1901853043        1.8749522643       -0.1814343187
 H         -1.6037597846       -0.5045081176       -1.8094750178
  68
       -116.82752556
 C          2.4149115769        4.4156565976        2.0919918003
 C          1.5348867066        3.6751881451        1.3080261725
 C          1.9007229796        2.4568314929        0.7706738472
 C          3.1729925208        1.9636959721        1.0398285214
 C          4.0613334462        2.7449839054        1.8092695461
 C          3.6972528995        3.9661603550        2.3470794521
 O          5.2820934863        2.1596027098        1.9153111961
 C          5.2177859935        1.0007343814        1.2077338196
 C          6.2915712077        0.1420719295        1.0034775755
 C          6.0991222394       -0.9610175443        0.1988800378
 C          4.8392802058       -1.2101623858       -0.3416517847
 C          4.3572974584       -2.2506602992       -1.2100590520
 C          4.9542134061       -3.3634473520       -1.7878423109
 C          4.1794140105       -4.1957053539       -2.5715446749
 C          2.8290293384       -3.9308034193       -2.7832519617
 C          2.2138501673       -2.8287091628       -2.2181073727
 C          2.9895793419       -1.9936623898       -1.4331497349
 N          2.6135021617       -0.8592239433       -0.7162254743
 C          1.2930957925       -0.6207564949       -0.3617679236
 C          0.8942250649       -0.5213574001        0.9792651870
 N         -0.3771318404       -0.5764068377        1.3086269160
 C         -1.2868832673       -0.6250925398        0.3368765717
 N         -2.6061084884       -0.8665935361        0.6937558168
 C         -2.9799702546       -1.9941939086        1.4215474376
 C         -2.2025052619       -2.8199609228        2.2145434472
 C         -2.8180209644       -3.9117106208        2.7990028567
 C         -4.1700182813       -4.1761402716        2.5970101956
 C         -4.9458390339       -3.3547243136        1.8028905526
 C         -4.3489904352       -2.2517194727        1.2065105319
 C         -4.8337835165       -1.2175628613        0.3320881823
 C         -6.0964666168       -0.9677043637       -0.2016238986
 C         -6.2938898013        0.1376338784       -1.0019389672
 C         -5.2220295058        0.9982750118       -1.2085831012
 O         -5.2937080208        2.1658484333       -1.9011576623
 C         -4.0738883458        2.7532051092       -1.7949164124
 C         -3.7190035687        3.9863125441       -2.3112188753
 C         -2.4364968263        4.4361318930       -2.0574796579
 C         -1.5464260295        3.6831024575       -1.2972519134
 C         -1.9035781737        2.4536063627       -0.7799245563
 C         -3.1772951951        1.9622670900       -1.0451323892
 C         -3.9300482890        0.7902199731       -0.6789649257
 C         -3.7312983583       -0.3788134612        0.0554051556
 C         -0.8887233150       -0.5365505064       -1.0050065930
 N          0.3830786231       -0.5868393191       -1.3339234506
 C          3.7359296180       -0.3697830346       -0.0736636647
 C          3.9302600459        0.7970939703        0.6653884496
 H          2.0955371642        5.3646152538        2.4949691070
 H          0.5467706247        4.0654160681        1.1151393939
 H          1.2200687208        1.9143616635        0.1344249007
 H          4.3979169998        4.5401358539        2.9316529460
 H          7.2477743458        0.3621745080        1.4485524919
 H          6.9169050263       -1.6306132121       -0.0153783931
 H          5.9997832409       -3.5723638024       -1.6205278967
 H          4.6239248144       -5.0674098231       -3.0281250077
 H          2.2490346694       -4.5999144410       -3.4010664930
 H          1.1690545849       -2.6199570577       -2.3858892077
 H          1.6044609473       -0.4443298705        1.7898080781
 H         -1.1566680413       -2.6106811516        2.3751765773
 H         -2.2373174959       -4.5724857454        3.4250733114
 H         -4.6150693365       -5.0389046392        3.0697636520
 H         -5.9926703849       -3.5635231700        1.6434886364
 H         -6.9134436158       -1.6369612289        0.0168189589
 H         -7.2534853676        0.3599500471       -1.4385489333
 H         -4.4268261762        4.5693006168       -2.8779813792
 H         -2.1244054904        5.3945065976       -2.4435720846
 H         -0.5571289520        4.0718864441       -1.1074378427
 H         -1.2146602102        1.9006785313       -0.1620223910
 H         -1.5996317381       -0.4706525510       -1.8160737395
