  154
       -222.03583601
 C         -2.0745448933       -4.8133057927        1.4513071300
 C         -1.0180746242       -5.8614134649        1.0749314796
 C         -1.4660844772       -6.6235760121       -0.1803545436
 C         -0.9188549873       -6.8675946705        2.2250548241
 C          0.3018606873       -5.1584839148        0.7864933764
 C          1.4495415420       -5.3677167637        1.5559562104
 C          2.6534342415       -4.7391788471        1.2894534410
 C          2.7194405147       -3.8776221652        0.2080088774
 C          1.5669029124       -3.6289417874       -0.5687302495
 C          0.3726184746       -4.2662963485       -0.2755923496
 C          1.9432504611       -2.6554223227       -1.5562456516
 C          1.2353312298       -2.0031647268       -2.5559504140
 C          1.8779234314       -1.0765138487       -3.3585313458
 C          1.1543460445       -0.3010737485       -4.4494967814
 C         -0.3571279208       -0.5488079991       -4.4358232095
 C          1.3819848248        1.2031151930       -4.2462552425
 C          1.7056680537       -0.7319844111       -5.8161796186
 C          3.2506499879       -0.8651271360       -3.1679293628
 C          3.9772726753       -1.5002971586       -2.1820669497
 C          3.3067498378       -2.3733483762       -1.3389133676
 N          3.7694638753       -3.1150718009       -0.2693654116
 C          5.0277252991       -3.0130033684        0.3319514798
 C          5.7611824803       -4.1767753457        0.5513943024
 C          7.0195197874       -4.1254561956        1.1197431244
 C          7.5794396612       -2.9032022958        1.4592801252
 C          6.8659041365       -1.7415096691        1.2431334883
 C          5.5828404847       -1.7765102927        0.7015057786
 C          4.8562339912       -0.5128672364        0.5388592301
 N          5.5750087125        0.5911462820        0.3599349364
 C          4.8834498778        1.6991362199        0.1083228516
 C          5.6317113948        2.9423058453       -0.0723334129
 C          6.9673212126        3.0199458349        0.3175230873
 C          7.6697834314        4.1969713647        0.1465677190
 C          7.0509110157        5.3001631607       -0.4209813353
 C          5.7255074863        5.2238866844       -0.8195467610
 C          5.0150646054        4.0521840548       -0.6454897100
 N          3.5591134435        1.7357701850       -0.0268507528
 C          2.9219894715        0.5981858203        0.2275881146
 C          1.4744071824        0.5320244327        0.0443081581
 C          0.7913410881       -0.6248978651        0.4173820326
 C         -0.5412105257       -0.7675914319        0.1049739278
 C         -1.2169577289        0.2575711772       -0.5510715005
 C         -2.6422384963        0.1073804120       -0.8338321103
 N         -3.1572095457       -1.1155803575       -0.8902793116
 C         -4.4676997450       -1.1817681287       -1.1089681718
 C         -5.0608506508       -2.5006129435       -1.3181868414
 C         -6.4452041814       -2.6594257008       -1.3163207319
 C         -6.9957602740       -3.9117126891       -1.5095813585
 C         -6.1739849670       -5.0106289416       -1.7073349995
 C         -4.7961335855       -4.8569267909       -1.7153786958
 C         -4.2396613725       -3.6080472973       -1.5224380273
 N         -5.2733149083       -0.1207998528       -1.1091308396
 C         -4.6710315237        1.0546124184       -0.9911917550
 C         -5.4949215192        2.2620044811       -0.8633236816
 C         -6.6745148581        2.3892903472       -1.5867662804
 C         -7.4139263879        3.5556135372       -1.5202914433
 C         -6.9823381590        4.6022651452       -0.7205768056
 C         -5.8310186919        4.4737458377        0.0360083756
 C         -5.0813884589        3.3046664533       -0.0188586964
 N         -3.9456137551        3.1597101744        0.7889483115
 C         -3.6779356354        2.0669642937        1.5913174438
 C         -4.5099587650        1.0387784376        2.0000609681
 C         -3.9833472546        0.0597261733        2.8225564727
 C         -2.6576404741        0.0805964272        3.2669295622
 C         -2.1024129497       -0.9742993897        4.2150087878
 C         -0.8072177971       -1.5683600599        3.6453797077
 C         -1.8086656339       -0.2996431769        5.5633962713
 C         -3.0803996223       -2.1278919008        4.4573324246
 C         -1.8419113929        1.1312653174        2.8687992161
 C         -2.3404057374        2.1200784721        2.0359879651
 C         -1.7665772097        3.2999774772        1.4504768345
 C         -0.4916545805        3.8472366411        1.4851205683
 C         -0.2203844040        5.0026413908        0.7706250309
 C          1.1516972614        5.6619429211        0.7718953088
 C          1.6391983080        5.8444564710       -0.6721331846
 C          1.0370350315        7.0340917434        1.4520804048
 C          2.2006483455        4.8385280616        1.5256131017
 C         -1.2545298746        5.5889422993        0.0287898389
 C         -2.5286368718        5.0600640713       -0.0317410645
 C         -2.7872661947        3.9067166750        0.6898594125
 N         -3.3541136525        1.2198271724       -0.9633605487
 C         -0.5516251539        1.4390115514       -0.8734127202
 C          0.7903216383        1.5691056496       -0.5879513523
 N          3.5310797558       -0.5350285686        0.5664178805
 H         -2.1991017337       -4.0712015962        0.6678695211
 H         -1.7798325607       -4.3025396016        2.3653558728
 H         -3.0380112778       -5.2917539169        1.6184720686
 H         -0.7113117788       -7.3536749772       -0.4662232710
 H         -1.6217864042       -5.9498931640       -1.0178958598
 H         -2.3993012177       -7.1489180326        0.0140519299
 H         -1.8842318121       -7.3494701484        2.3679520349
 H         -0.1854505048       -7.6405687271        2.0068689904
 H         -0.6515950538       -6.3743915320        3.1566419732
 H          1.4173032092       -6.0398575238        2.3975950105
 H          3.5110999125       -4.9158578953        1.9215948924
 H         -0.4924042526       -4.0527373235       -0.8840075287
 H          0.1880962650       -2.2243979351       -2.6746451555
 H         -0.7843886064       -0.2839969993       -3.4706397420
 H         -0.5883129617       -1.5886019179       -4.6555616085
 H         -0.8329393468        0.0661456139       -5.1975643399
 H          2.4343636487        1.4630782861       -4.3176591913
 H          0.8423193911        1.7685608074       -5.0035902066
 H          1.0203351193        1.5019417643       -3.2650953034
 H          2.7705368945       -0.5278759437       -5.8914843231
 H          1.1963404586       -0.1957347648       -6.6144282182
 H          1.5528201897       -1.7992293703       -5.9638015807
 H          3.7751188917       -0.1746509725       -3.8112906291
 H          5.0341076100       -1.3039472988       -2.0647900917
 H          5.3359868304       -5.1233016451        0.2507467938
 H          7.5706229763       -5.0396477446        1.2831633759
 H          8.5679677315       -2.8593616633        1.8902060722
 H          7.2804463639       -0.7799793353        1.5047474248
 H          7.4347848432        2.1507048820        0.7538658320
 H          8.7034066451        4.2575527311        0.4540184717
 H          7.6030583034        6.2188262216       -0.5557558734
 H          5.2483455028        6.0820454438       -1.2708028390
 H          3.9854522195        3.9722877078       -0.9537952757
 H          1.3252529483       -1.4024705458        0.9389416003
 H         -1.0797406517       -1.6657882696        0.3611177719
 H         -7.0678153877       -1.7923820034       -1.1574645593
 H         -8.0687711370       -4.0348595337       -1.5066018815
 H         -6.6076370624       -5.9884631574       -1.8580749068
 H         -4.1583630277       -5.7141167282       -1.8744235395
 H         -3.1706913831       -3.4621835291       -1.5352334217
 H         -6.9854629150        1.5681313079       -2.2150523958
 H         -8.3234503846        3.6513481927       -2.0935285945
 H         -7.5538843733        5.5172273970       -0.6719156153
 H         -5.5098964049        5.2723735352        0.6887494653
 H         -5.5425714679        0.9909927211        1.6836455361
 H         -4.6402651748       -0.7399452484        3.1228735776
 H         -1.0008041160       -2.0459280581        2.6890038685
 H         -0.4057102805       -2.3137294370        4.3297447018
 H         -0.0480844941       -0.8071433149        3.4933125249
 H         -1.0704449733        0.4898414337        5.4511886117
 H         -1.4271444116       -1.0288370730        6.2754319916
 H         -2.7170423818        0.1395489243        5.9709126324
 H         -3.3581975247       -2.6058882474        3.5205963063
 H         -3.9798423780       -1.7829219481        4.9619262412
 H         -2.6089300444       -2.8753549116        5.0929723599
 H         -0.8160696760        1.1960786258        3.1971617383
 H          0.2681334298        3.3481237621        2.0627567761
 H          1.6598850014        4.8863702264       -1.1869912610
 H          2.6431621963        6.2634268169       -0.6744794617
 H          0.9932241259        6.5148099871       -1.2321337494
 H          0.3338967701        7.6758517856        0.9275004380
 H          2.0064365007        7.5283225372        1.4695242359
 H          0.6905234825        6.9170629628        2.4768600641
 H          1.9352150587        4.7353285502        2.5753633094
 H          2.3170592473        3.8491384726        1.0891676841
 H          3.1646682944        5.3421647603        1.4744117038
 H         -1.0596422682        6.4922974413       -0.5293400895
 H         -3.2923498808        5.5295187282       -0.6342148669
 H         -1.0973996627        2.2338140095       -1.3580265802
 H          1.3303983898        2.4637154071       -0.8552132191
