  106
       -152.77686659
 C         -4.8130208542        5.4203541056        0.1923287107
 C         -4.6933833115        4.7073519649        1.5471294146
 C         -3.2682345338        4.8684303094        2.0952478894
 C         -5.6594596583        5.3798687320        2.5258213546
 C         -4.9819752132        3.2268982653        1.3535935209
 C         -6.0191100865        2.5674669825        2.0050026543
 C         -6.2603657603        1.2150027644        1.8161551156
 C         -5.4498125000        0.5014376611        0.9529280366
 C         -4.4065364935        1.1558497401        0.2839300644
 C         -4.1715108567        2.4951988577        0.4823835083
 C         -3.6522273144        0.1903615023       -0.6102029201
 C         -3.8210045960        0.4979472136       -2.0803917171
 C         -4.8819510279        1.2578449054       -2.5578054223
 C         -5.0162789446        1.4482488879       -3.9233835319
 C         -4.0881877072        0.8593127768       -4.7670352195
 N         -3.0788265736        0.1262260923       -4.3268083915
 C         -2.9527344630       -0.0461274132       -3.0245718650
 C         -2.1960119125        0.1610662966       -0.1953178905
 C         -1.3274736320        1.1451064152       -0.6797195843
 C         -0.0040837880        1.2104414733       -0.2929506498
 C          0.4573976063        0.2646670154        0.6108411046
 C         -0.4005976952       -0.7500681732        1.0891851870
 C         -1.7302355359       -0.7903502729        0.6947733825
 C          0.3937632864       -1.5864194383        1.9439016153
 C          0.1139638814       -2.7176460115        2.6987933824
 C          1.1284902718       -3.2817571202        3.4458800689
 C          2.4035841013       -2.7209556889        3.4596124858
 C          2.7043294346       -1.5959681119        2.7163294821
 C          1.6979331592       -1.0400560442        1.9406318313
 N          1.7225607434        0.0797514580        1.1329224658
 C          2.8304802287        0.8978640672        0.8826696976
 C          2.7169919054        2.2805776945        1.0093958407
 C          3.8056765428        3.0878903842        0.7365890434
 C          5.0124715504        2.5354453403        0.3490369140
 C          5.1322661664        1.1534930202        0.2220130670
 N          6.3451376593        0.5893590454       -0.1903173692
 C          7.0146732962       -0.4451438779        0.4332240118
 C          6.7061335211       -1.1190271126        1.6053771105
 C          7.5714529168       -2.1081419226        2.0313162939
 C          8.7270409131       -2.4182785047        1.3180643082
 C          9.0549626787       -1.7324666033        0.1656738235
 C          8.1988891623       -0.7350062451       -0.2821613648
 C          8.2352509674        0.1716959646       -1.3954062045
 C          9.1247545666        0.3590744755       -2.4451629940
 C          8.8439079500        1.3308017777       -3.3846120115
 C          7.6855439770        2.0993580453       -3.2954161293
 C          6.7855375911        1.9311612401       -2.2603652527
 C          7.0751278455        0.9735714188       -1.2991442629
 C          4.0389053379        0.3362940731        0.4868229463
 C         -4.3934182133       -1.1056919175       -0.3393141661
 C         -4.1512244001       -2.3500901828       -0.8700159640
 C         -4.9535449231       -3.4331064127       -0.5040640587
 C         -4.6404068204       -4.8013569711       -1.0880321163
 C         -3.2207404635       -5.2048140293       -0.6637214501
 C         -4.7237102995       -4.7246517044       -2.6189655698
 C         -5.6079359323       -5.8880163246       -0.6118778806
 C         -5.9984470856       -3.2125963807        0.3878085659
 C         -6.2544692480       -1.9588842824        0.9219552416
 C         -5.4463671114       -0.8966058539        0.5607248290
 H         -5.8143698405        5.2903298685       -0.2132436773
 H         -4.6248242528        6.4852891468        0.3108742878
 H         -4.1003578781        5.0271988750       -0.5273523703
 H         -2.5309747768        4.4598665051        1.4096839444
 H         -3.1715877874        4.3489988978        3.0465011804
 H         -3.0433384444        5.9214185277        2.2516746814
 H         -5.4018405334        6.4326010534        2.6232124995
 H         -5.5956238118        4.9262045701        3.5120074482
 H         -6.6848176541        5.3171587315        2.1690453655
 H         -6.6630989082        3.1051304039        2.6814109761
 H         -7.0720246668        0.7311778516        2.3393222032
 H         -3.3584781465        2.9740552983       -0.0398041849
 H         -5.5906928714        1.6956909508       -1.8699199195
 H         -5.8273372909        2.0379571805       -4.3222019881
 H         -4.1499126178        0.9723983312       -5.8411528579
 H         -2.1048154471       -0.6435854600       -2.7148504764
 H         -1.6969513117        1.8664081978       -1.3934853734
 H          0.6498651172        1.9679233888       -0.6976715478
 H         -2.3844419135       -1.5598282346        1.0729686320
 H         -0.8798910749       -3.1395262020        2.7007836426
 H          0.9333079451       -4.1634071709        4.0375997854
 H          3.1734428710       -3.1729520443        4.0670980183
 H          3.6891084671       -1.1575416030        2.7522627468
 H          1.7822894791        2.7101601377        1.3352462766
 H          3.7170871471        4.1586698709        0.8420350490
 H          5.8682800716        3.1643202638        0.1583577534
 H          5.8266897562       -0.8691758014        2.1782182481
 H          7.3489941577       -2.6488204204        2.9393283983
 H          9.3776252303       -3.1992765600        1.6819113676
 H          9.9599169779       -1.9594580558       -0.3772188497
 H         10.0137083627       -0.2483304003       -2.5228218595
 H          9.5237321448        1.4947507833       -4.2071426257
 H          7.4838562742        2.8411412523       -4.0539253471
 H          5.8815217861        2.5193785636       -2.2110628474
 H          4.1202193046       -0.7315216004        0.3551450579
 H         -3.3339562453       -2.4809390719       -1.5615804962
 H         -3.1505555879       -5.2452916442        0.4213518242
 H         -2.4823261384       -4.4957228742       -1.0264689135
 H         -2.9750752313       -6.1869890168       -1.0615019017
 H         -4.5120120659       -5.6987616802       -3.0545646040
 H         -5.7219506826       -4.4187903159       -2.9252761163
 H         -4.0115293905       -4.0100390867       -3.0211310009
 H         -5.3361878958       -6.8385230846       -1.0664716317
 H         -5.5622180601       -6.0077213477        0.4679965500
 H         -6.6296371834       -5.6564723414       -0.9033361675
 H         -6.6377367941       -4.0276848451        0.6848289264
 H         -7.0737391890       -1.8207098544        1.6121008644
