106
 energy: -152.834939036872 gnorm: 0.000068983527 xtb: 6.7.1 (edcfbbe)
C           -5.24533118146786        5.44823261979524        2.12898017596996
C           -4.32014101704275        4.73742968459678        1.13655026247158
C           -4.55991561396605        5.33992977961269       -0.25641976780134
C           -2.86879644022697        4.99196435596964        1.57121564250841
C           -4.56298608588943        3.23662085367820        1.07234051266331
C           -5.54480909021722        2.59629328935992        1.82228154194730
C           -5.75099147481576        1.22696398493331        1.74562930091748
C           -4.95972494423377        0.47338735276705        0.89802005954191
C           -3.96954202151583        1.10556158607513        0.13347811508062
C           -3.77023061136735        2.46304465806017        0.22029653932372
C           -3.21400166980741        0.09413810960876       -0.70998481637091
C           -3.40180718301388        0.29687331731835       -2.19582735409989
C           -4.48576175579553        0.99864385730389       -2.71170831223403
C           -4.63903892412100        1.09545010905814       -4.08524832337869
C           -3.70583208664876        0.47365642644164       -4.89918008556514
N           -2.67514192915769       -0.20709754456000       -4.42327804113761
C           -2.53206427053093       -0.29006280122801       -3.11297734677139
C           -1.75512263670676        0.12335367138226       -0.29466573600315
C           -0.89384143327843        1.06861488617588       -0.86274545276687
C            0.42433861312957        1.19052326386196       -0.47051617066620
C            0.88843871945320        0.34715821491679        0.52867785071922
C            0.03750745458295       -0.62590920175432        1.09827431295899
C           -1.28557467317225       -0.72621158313306        0.69222013001273
C            0.82864869977257       -1.35470725910463        2.04957513407421
C            0.55212200871465       -2.40348781000720        2.91730393782097
C            1.56166247072550       -2.86837702670597        3.73660111916859
C            2.82854822326471       -2.28862167199912        3.70998730813416
C            3.12504540797933       -1.24363617740553        2.85601878290809
C            2.12448952501255       -0.79021557149702        2.00887968853134
N            2.14809213851612        0.23760322103469        1.08577646407020
C            3.25327799933150        1.04072034233308        0.76887876903426
C            3.12792942402899        2.42794733655610        0.76564208049814
C            4.21454694676887        3.21609987020667        0.43299154143976
C            5.43139890726024        2.64049952413048        0.11536562571629
C            5.56260928751373        1.25400700334756        0.11859224963804
N            6.78929320774971        0.66371942992504       -0.22064667686547
C            7.47007869624525       -0.28127573837351        0.52148434463801
C            7.15974815396480       -0.82469764845562        1.75953442449519
C            8.03675756869057       -1.74357096557255        2.30317126863189
C            9.20636328740825       -2.11046834086321        1.64057407834248
C            9.53489410939066       -1.55412688077452        0.42014992688309
C            8.66684841871052       -0.62933387082785       -0.14649113993798
C            8.69948384000220        0.14678777814543       -1.35483372834674
C            9.59747217999255        0.23304316877366       -2.41129851974808
C            9.31147874332980        1.09066653634036       -3.45499505312429
C            8.13993196489767        1.84530122273717       -3.46126059867569
C            7.23117939105314        1.77609605356149       -2.42230117430238
C            7.52475871381189        0.93392621043173       -1.35895960537312
C            4.47121349503419        0.45485014402573        0.44125997812546
C           -3.92168259697591       -1.19554286651796       -0.33029776753096
C           -3.67393078747064       -2.46823561931445       -0.79755178950766
C           -4.43237868978385       -3.53897007927384       -0.32804747253384
C           -4.19637880553174       -4.96918625377052       -0.79081574939099
C           -3.07082468798641       -5.07692522812359       -1.82444365282933
C           -5.48411885539126       -5.51131837402155       -1.42895118872173
C           -3.81389507261552       -5.83018581697732        0.42281764383032
C           -5.43674380283243       -3.27866316108156        0.60538369966362
C           -5.69868180519714       -2.00358092365004        1.07372033959864
C           -4.93498598450055       -0.94852239658918        0.60273786809162
H           -5.10102728033419        5.06969573772478        3.13848566664869
H           -5.02008302781428        6.51299054477209        2.13411874312277
H           -6.28924945748549        5.32851563257104        1.84785014029067
H           -5.58382500425675        5.15385355292208       -0.57568934002536
H           -3.88936353110192        4.91028572789585       -0.99599496415076
H           -4.39677812200902        6.41546506384474       -0.23230671652106
H           -2.68140954498719        6.06164176002742        1.64011212524583
H           -2.16106809675389        4.56699893069021        0.86459495191946
H           -2.68478877161949        4.54502872188518        2.54653572355974
H           -6.17358864861108        3.16364901103186        2.48897863572870
H           -6.52134485870724        0.76092077624835        2.34278684555076
H           -2.99868279426442        2.92379567702844       -0.37722951610669
H           -5.19867428655846        1.46526976469042       -2.04694646603980
H           -5.46743817580362        1.63923218020530       -4.51290831205447
H           -3.77914998652162        0.51522185815967       -5.97835727799437
H           -1.66710287677647       -0.84888175520088       -2.77763648296495
H           -1.26535611096383        1.71527157581707       -1.64476204275724
H            1.07121654698664        1.91567087355514       -0.94040912413671
H           -1.93415366176982       -1.46319252283206        1.14045331272960
H           -0.43569128098906       -2.83879923570944        2.94978171194942
H            1.36885449645792       -3.68546032045096        4.41620281380484
H            3.59475066633703       -2.66117094419127        4.37417480156511
H            4.10265150681449       -0.78797634619124        2.85989928276408
H            2.18566030805814        2.87827500205535        1.03710830581930
H            4.11623231034308        4.29123169138852        0.43632949032428
H            6.28491143978708        3.25628119368108       -0.12280438762726
H            6.26824304251742       -0.52965470971491        2.29063113291367
H            7.81355778676175       -2.18273159898479        3.26468066135519
H            9.86718001075049       -2.83311117204628        2.09656543016336
H           10.44981654234618       -1.82634787069338       -0.08465657176731
H           10.49789516665705       -0.36302307389903       -2.41396521903914
H            9.99864868403433        1.17483868604917       -4.28416518011363
H            7.93559257583708        2.49657461329887       -4.29869026606798
H            6.31867918979469        2.35248981818432       -2.44501579669142
H            4.56276098585898       -0.62045495239889        0.41072605747894
H           -2.88676150009244       -2.61625308950246       -1.51821389288997
H           -2.12357881942897       -4.73776252287093       -1.41056204482440
H           -3.29877586964736       -4.49611054546676       -2.71587961797666
H           -2.95264245179647       -6.11685029730184       -2.12272265331233
H           -5.32358713176353       -6.52461728972934       -1.79134516836149
H           -6.30367924022050       -5.53151623665075       -0.71586224715527
H           -5.77847903772948       -4.88619073428737       -2.27006793008209
H           -3.62672671333560       -6.85522495044180        0.10969579463572
H           -2.91035408099814       -5.44185003612162        0.88936109272436
H           -4.60512080337534       -5.84071007499201        1.16755875891453
H           -6.03683099900157       -4.09301794083452        0.98295467628793
H           -6.48521755972389       -1.83847022409610        1.79563786939974
