  91
       -136.85226633
 C          0.4109311796        5.5302820343        1.1059096628
 C         -0.2348254200        4.7953329477       -0.0730188418
 C          0.2239330348        5.4109064637       -1.3998547641
 C         -1.7396157033        4.8148191320        0.0384512821
 C         -2.5771526254        5.8993967417        0.0860704273
 C         -3.9497593542        5.6940447469        0.2178463633
 C         -4.4561624326        4.4035536702        0.3126125025
 C         -3.6245604252        3.3043555821        0.2602579772
 C         -2.2458324007        3.4936010529        0.1068980126
 C         -1.1639969730        2.5723297740        0.0312770452
 C          0.0705835143        3.3112006262       -0.0344484679
 C          1.3401670620        2.7826732093       -0.0513615021
 C          1.4543020987        1.3691867222        0.0033887025
 C          2.4245311442        0.3145043035        0.0205810919
 C          3.8114225123        0.2984351559        0.0091224763
 C          4.4820134574       -0.9244435574        0.0378019123
 N          5.8801535793       -0.9474468619        0.0250498593
 C          6.5855015084       -0.0180850371       -0.7420463495
 C          6.0864214292        0.4026025775       -1.9761562320
 C          6.7830700357        1.3265785355       -2.7291626312
 C          7.9860476408        1.8414356623       -2.2724629879
 C          8.4874624783        1.4255371884       -1.0494785546
 C          7.7960153023        0.5064571036       -0.2852702879
 C          6.5678251070       -1.8985817047        0.7822651923
 C          7.7414082544       -2.4788809985        0.2986924125
 C          8.4142742635       -3.4184978484        1.0545086367
 C          7.9295105836       -3.7994027162        2.2957057288
 C          6.7627642943       -3.2288280101        2.7789510496
 C          6.0851180036       -2.2841794581        2.0342729212
 C          3.7699483482       -2.1364786881        0.0798796465
 C          2.3844010686       -2.1476400161        0.0919823984
 C          1.7100451959       -0.9454698585        0.0648897018
 N          0.3608929329       -0.6608015087        0.0720888993
 C         -0.9023313596       -1.1801877446        0.0836546808
 C         -1.3422951323       -2.4929796715        0.1196230512
 C         -2.6968547271       -2.7455383953        0.0898481415
 C         -3.6255295972       -1.6799006640        0.0021515223
 N         -4.9902680165       -1.9607577163       -0.0419268490
 C         -5.4562516133       -3.1042286428       -0.6941273271
 C         -6.5490587462       -3.8100898641       -0.1879091759
 C         -7.0053256474       -4.9408582759       -0.8352981082
 C         -6.3812754714       -5.3892733161       -1.9891154221
 C         -5.2960016589       -4.6922131399       -2.4957047084
 C         -4.8350333402       -3.5564605912       -1.8601375337
 C         -5.9043102851       -1.0708294180        0.5337543652
 C         -5.6013782659       -0.4235699125        1.7327975613
 C         -6.4958100340        0.4717984844        2.2840939589
 C         -7.7061850077        0.7289209123        1.6593438401
 C         -8.0168579599        0.0805206629        0.4751191018
 C         -7.1254929062       -0.8108907222       -0.0894721615
 C         -3.1949644961       -0.3589638465       -0.0295000377
 C         -1.8407196643       -0.0633814722        0.0402931558
 C         -1.0796930596        1.1493539159        0.0329653587
 C          0.2352606076        0.7053374823        0.0381386353
 H          0.1241088688        6.5794471072        1.0992130092
 H          1.4950552676        5.4661140001        1.0484154876
 H          0.0860289918        5.0875046913        2.0451065542
 H         -0.0604764484        6.4597857216       -1.4474634234
 H         -0.2388326867        4.8872790951       -2.2338168440
 H          1.3045166752        5.3368204562       -1.4998807063
 H         -2.1867024922        6.9059570015        0.0282112404
 H         -4.6195424289        6.5404565738        0.2563661309
 H         -5.5213082757        4.2581603436        0.4318184371
 H         -4.0376630747        2.3138442996        0.3575589045
 H          2.2127055639        3.4152012875       -0.0997537325
 H          4.3688811645        1.2230211262       -0.0029954497
 H          5.1550481040       -0.0067763297       -2.3382567874
 H          6.3875317189        1.6414344871       -3.6834038255
 H          8.5286501749        2.5619363753       -2.8651896781
 H          9.4209146613        1.8266576566       -0.6830699580
 H          8.1813930399        0.1955285186        0.6746939006
 H          8.1131695922       -2.1935842663       -0.6745647222
 H          9.3195004325       -3.8628825931        0.6680179936
 H          8.4574059306       -4.5358767424        2.8820596967
 H          6.3814433024       -3.5160183412        3.7476799960
 H          5.1822431241       -1.8309654029        2.4155544464
 H          4.3160048281       -3.0667723504        0.0844968033
 H          1.8515272545       -3.0861328900        0.1097943893
 H         -0.6379916488       -3.3086905994        0.1814600081
 H         -3.0624210161       -3.7584472382        0.1496548895
 H         -7.0275690849       -3.4685970222        0.7183178251
 H         -7.8492813946       -5.4808093633       -0.4324491623
 H         -6.7396986792       -6.2752777127       -2.4904519381
 H         -4.8097632916       -5.0307310392       -3.3986180870
 H         -3.9997804105       -3.0036724663       -2.2635930284
 H         -4.6619321973       -0.6295414708        2.2240041218
 H         -6.2477993980        0.9692637214        3.2097167892
 H         -8.4023100304        1.4304186226        2.0930260589
 H         -8.9555926898        0.2790715980       -0.0204261543
 H         -7.3610850642       -1.3010221112       -1.0226580332
 H         -3.9220396428        0.4287953011       -0.1385771735
