  91
       -136.85226633
 C          0.4109311796        5.5302820343        1.1059096628
 C         -0.2348254200        4.7953329477       -0.0730188418
 C          0.2239330348        5.4109064637       -1.3998547641
 C         -1.7396157033        4.8148191320        0.0384512821
 C         -2.5771526254        5.8993967417        0.0860704273
 C         -3.9497593542        5.6940447469        0.2178463633
 C         -4.4561624326        4.4035536702        0.3126125025
 C         -3.6245604252        3.3043555821        0.2602579772
 C         -2.2458324007        3.4936010529        0.1068980126
 C         -1.1639969730        2.5723297740        0.0312770452
 C          0.0705835143        3.3112006262       -0.0344484679
 C          1.3401670620        2.7826732093       -0.0513615021
 C          1.4543020987        1.3691867222        0.0033887025
 C          2.4245311442        0.3145043035        0.0205810919
 C          3.8114225123        0.2984351559        0.0091224763
 C          4.4820134574       -0.9244435574        0.0378019123
 N          5.8801535793       -0.9474468619        0.0250498593
 C          6.5855015084       -0.0180850371       -0.7420463495
 C          6.0864214292        0.4026025775       -1.9761562320
 C          6.7830700357        1.3265785355       -2.7291626312
 C          7.9860476408        1.8414356623       -2.2724629879
 C          8.4874624783        1.4255371884       -1.0494785546
 C          7.7960153023        0.5064571036       -0.2852702879
 C          6.5678251070       -1.8985817047        0.7822651923
 C          7.7414082544       -2.4788809985        0.2986924125
 C          8.4142742635       -3.4184978484        1.0545086367
 C          7.9295105836       -3.7994027162        2.2957057288
 C          6.7627642943       -3.2288280101        2.7789510496
 C          6.0851180036       -2.2841794581        2.0342729212
 C          3.7699483482       -2.1364786881        0.0798796465
 C          2.3844010686       -2.1476400161        0.0919823984
 C          1.7100451959       -0.9454698585        0.0648897018
 N          0.3608929329       -0.6608015087        0.0720888993
 C         -0.9023313596       -1.1801877446        0.0836546808
 C         -1.3422951323       -2.4929796715        0.1196230512
 C         -2.6968547271       -2.7455383953        0.0898481415
 C         -3.6255295972       -1.6799006640        0.0021515223
 N         -4.9902680165       -1.9607577163       -0.0419268490
 C         -5.4562516133       -3.1042286428       -0.6941273271
 C         -6.5490587462       -3.8100898641       -0.1879091759
 C         -7.0053256474       -4.9408582759       -0.8352981082
 C         -6.3812754714       -5.3892733161       -1.9891154221
 C         -5.2960016589       -4.6922131399       -2.4957047084
 C         -4.8350333402       -3.5564605912       -1.8601375337
 C         -5.9043102851       -1.0708294180        0.5337543652
 C         -5.6013782659       -0.4235699125        1.7327975613
 C         -6.4958100340        0.4717984844        2.2840939589
 C         -7.7061850077        0.7289209123        1.6593438401
 C         -8.0168579599        0.0805206629        0.4751191018
 C         -7.1254929062       -0.8108907222       -0.0894721615
 C         -3.1949644961       -0.3589638465       -0.0295000377
 C         -1.8407196643       -0.0633814722        0.0402931558
 C         -1.0796930596        1.1493539159        0.0329653587
 C          0.2352606076        0.7053374823        0.0381386353
 H          0.1241088688        6.5794471072        1.0992130092
 H          1.4950552676        5.4661140001        1.0484154876
 H          0.0860289918        5.0875046913        2.0451065542
 H         -0.0604764484        6.4597857216       -1.4474634234
 H         -0.2388326867        4.8872790951       -2.2338168440
 H          1.3045166752        5.3368204562       -1.4998807063
 H         -2.1867024922        6.9059570015        0.0282112404
 H         -4.6195424289        6.5404565738        0.2563661309
 H         -5.5213082757        4.2581603436        0.4318184371
 H         -4.0376630747        2.3138442996        0.3575589045
 H          2.2127055639        3.4152012875       -0.0997537325
 H          4.3688811645        1.2230211262       -0.0029954497
 H          5.1550481040       -0.0067763297       -2.3382567874
 H          6.3875317189        1.6414344871       -3.6834038255
 H          8.5286501749        2.5619363753       -2.8651896781
 H          9.4209146613        1.8266576566       -0.6830699580
 H          8.1813930399        0.1955285186        0.6746939006
 H          8.1131695922       -2.1935842663       -0.6745647222
 H          9.3195004325       -3.8628825931        0.6680179936
 H          8.4574059306       -4.5358767424        2.8820596967
 H          6.3814433024       -3.5160183412        3.7476799960
 H          5.1822431241       -1.8309654029        2.4155544464
 H          4.3160048281       -3.0667723504        0.0844968033
 H          1.8515272545       -3.0861328900        0.1097943893
 H         -0.6379916488       -3.3086905994        0.1814600081
 H         -3.0624210161       -3.7584472382        0.1496548895
 H         -7.0275690849       -3.4685970222        0.7183178251
 H         -7.8492813946       -5.4808093633       -0.4324491623
 H         -6.7396986792       -6.2752777127       -2.4904519381
 H         -4.8097632916       -5.0307310392       -3.3986180870
 H         -3.9997804105       -3.0036724663       -2.2635930284
 H         -4.6619321973       -0.6295414708        2.2240041218
 H         -6.2477993980        0.9692637214        3.2097167892
 H         -8.4023100304        1.4304186226        2.0930260589
 H         -8.9555926898        0.2790715980       -0.0204261543
 H         -7.3610850642       -1.3010221112       -1.0226580332
 H         -3.9220396428        0.4287953011       -0.1385771735
  91
       -136.85218662
 C          0.1687449520        5.5598860012        0.5114782587
 C         -0.2433511011        4.7398106035       -0.7164188154
 C          0.4394530926        5.2855961105       -1.9743983164
 C         -1.7439722185        4.7302626992       -0.8781497836
 C         -2.5818051990        5.7856510744       -1.1318982825
 C         -3.9487748137        5.5507203125       -1.2731921113
 C         -4.4492609637        4.2586473159       -1.1702576589
 C         -3.6174344999        3.1893252634       -0.9108019545
 C         -2.2452637976        3.4122817014       -0.7458941756
 C         -1.1640074535        2.5232801885       -0.4899223041
 C          0.0668003425        3.2701694599       -0.5106748435
 C          1.3363653399        2.7571504970       -0.3788889126
 C          1.4542381969        1.3528576106       -0.2090274575
 C          2.4258462236        0.3113951702       -0.0443813087
 C          3.8112906258        0.3048743590        0.0204689518
 C          4.4837636869       -0.9058840780        0.1913675339
 N          5.8793974201       -0.9201506147        0.2606944696
 C          6.6296198635       -0.0323771129       -0.5139921565
 C          7.8034282719        0.5293603202       -0.0083870206
 C          8.5410154464        1.4073765325       -0.7776333600
 C          8.1223465018        1.7443984378       -2.0547959540
 C          6.9567744234        1.1910885349       -2.5609695845
 C          6.2147547459        0.3074049598       -1.8027924890
 C          6.5277816211       -1.8204365648        1.1104455014
 C          5.9857322211       -2.1271688260        2.3598495644
 C          6.6261889144       -3.0222867696        3.1934601533
 C          7.8137025623       -3.6202158129        2.8026524814
 C          8.3578143199       -3.3165057853        1.5648187077
 C          7.7227720311       -2.4268940014        0.7208615829
 C          3.7734140417       -2.1153189718        0.2981348959
 C          2.3893291613       -2.1352587556        0.2424752472
 C          1.7136437876       -0.9448893184        0.0769987430
 N          0.3650171578       -0.6710943120       -0.0052210724
 C         -0.8973343572       -1.1905461282        0.0403230188
 C         -1.3379039305       -2.4947562838        0.1942134011
 C         -2.6928912882       -2.7420794540        0.2435668188
 C         -3.6229843385       -1.6759970584        0.1687545789
 N         -4.9872092037       -1.9455683627        0.2491083383
 C         -5.9011858232       -1.1235618770       -0.4226055869
 C         -5.6169072399       -0.6481166569       -1.7035184622
 C         -6.5094122972        0.1845896815       -2.3486881633
 C         -7.6983416679        0.5479574892       -1.7355664697
 C         -7.9908111287        0.0685911550       -0.4690295677
 C         -7.1016817262       -0.7595950211        0.1879680861
 C         -5.4623951205       -2.9951163866        1.0383109655
 C         -4.8470558823       -3.3069238653        2.2524121665
 C         -5.3208131212       -4.3512948570        3.0214229424
 C         -6.4133555332       -5.0934855966        2.6022363487
 C         -7.0326630253       -4.7827395111        1.4015092473
 C         -6.5635690539       -3.7449855344        0.6212606607
 C         -3.1914497359       -0.3647993053        0.0062068744
 C         -1.8369770171       -0.0828102751       -0.0998415034
 C         -1.0773945022        1.1186812084       -0.2671571014
 C          0.2377979795        0.6845112703       -0.1788030699
 H         -0.1211229048        6.6006353000        0.3845130668
 H          1.2456445366        5.5119733131        0.6567676355
 H         -0.3196395049        5.1695172085        1.4018928714
 H          0.1574674815        6.3234772991       -2.1364692052
 H          0.1395666001        4.7044132388       -2.8438223220
 H          1.5211316827        5.2308619261       -1.8762566122
 H         -2.1960673727        6.7910930786       -1.2279747235
 H         -4.6185181269        6.3741008520       -1.4732981867
 H         -5.5094602589        4.0872190900       -1.2988234391
 H         -4.0246090957        2.1929170974       -0.8585880144
 H          2.2064692195        3.3942997108       -0.4073515847
 H          4.3650869120        1.2296250799       -0.0416364455
 H          8.1235574001        0.2795833001        0.9925711020
 H          9.4446203786        1.8388833993       -0.3730381253
 H          8.7002741809        2.4335194907       -2.6514204418
 H          6.6267193021        1.4437197770       -3.5576267918
 H          5.3132423542       -0.1326602985       -2.2024405212
 H          5.0665834403       -1.6520881176        2.6688159647
 H          6.1993044381       -3.2488578310        4.1592649894
 H          8.3116095116       -4.3184340891        3.4580203929
 H          9.2794692691       -3.7831706891        1.2499484619
 H          8.1406336358       -2.2019377900       -0.2495347470
 H          4.3205463371       -3.0383209291        0.4088886182
 H          1.8587217324       -3.0722909808        0.3159856688
 H         -0.6335583642       -3.3097931763        0.2637771953
 H         -3.0573266720       -3.7536542269        0.3271252630
 H         -4.6935270055       -0.9367580081       -2.1834578537
 H         -6.2763079135        0.5502170011       -3.3374542780
 H         -8.3918817590        1.2018380336       -2.2417448133
 H         -8.9126992777        0.3512386975        0.0171761735
 H         -7.3218284416       -1.1183773625        1.1827853989
 H         -4.0067809316       -2.7171943354        2.5872296883
 H         -4.8389556010       -4.5817491490        3.9600429937
 H         -6.7813495008       -5.9075945877        3.2076947869
 H         -7.8823800330       -5.3588578442        1.0664395014
 H         -7.0380953853       -3.5112904832       -0.3206278580
 H         -3.9169370920        0.4317978887       -0.0038327882
  91
       -136.85208324
 C          0.3788758653        5.5164604844        1.1684985887
 C         -0.2316072273        4.7963366215       -0.0382998045
 C          0.2679060456        5.4267919846       -1.3429309075
 C         -1.7388566871        4.8161899624        0.0299845347
 C         -2.5762787340        5.9017127617        0.0555461072
 C         -3.9522913410        5.6977764551        0.1457899811
 C         -4.4623129099        4.4076417418        0.2214661453
 C         -3.6303293986        3.3075685407        0.1914524793
 C         -2.2476161991        3.4954550711        0.0810114495
 C         -1.1640427547        2.5731657490        0.0322551372
 C          0.0713281932        3.3117309037       -0.0048598353
 C          1.3414040164        2.7833359308       -0.0032721118
 C          1.4543792065        1.3699262591        0.0411339317
 C          2.4244289415        0.3146688526        0.0553681701
 C          3.8109222209        0.2993495785        0.0514549220
 C          4.4838124497       -0.9235250325        0.0390678727
 N          5.8797949749       -0.9449578520        0.0189762531
 C          6.5893501438        0.0516920019       -0.6572737765
 C          7.7887937503        0.5392537655       -0.1352507048
 C          8.4867656153        1.5265501629       -0.8023957021
 C          8.0024615348        2.0467515425       -1.9918905280
 C          6.8120442327        1.5662143648       -2.5145042064
 C          6.1094787994        0.5746259675       -1.8590587475
 C          6.5787491823       -1.9643703615        0.6720029855
 C          6.1276918086       -2.4608757466        1.8961806606
 C          6.8184730265       -3.4741373321        2.5308171307
 C          7.9674483911       -4.0029732883        1.9646002385
 C          8.4226285868       -3.5094838082        0.7521289483
 C          7.7362104867       -2.5005575960        0.1059528182
 C          3.7697530979       -2.1360992796        0.0414013734
 C          2.3846180034       -2.1475272399        0.0637308257
 C          1.7093020101       -0.9454248588        0.0742031217
 N          0.3606988034       -0.6604665641        0.0823133547
 C         -0.9022865846       -1.1793339448        0.0907590730
 C         -1.3437946936       -2.4908264100        0.1505469893
 C         -2.6984275939       -2.7429270425        0.1294875079
 C         -3.6277593374       -1.6794767181        0.0131892266
 N         -4.9904593483       -1.9596202311       -0.0300557696
 C         -5.4588806653       -3.1504671674       -0.5919883763
 C         -6.5475504953       -3.8128721446       -0.0223617872
 C         -7.0092275414       -4.9914126035       -0.5734780302
 C         -6.3951220864       -5.5297380709       -1.6937545848
 C         -5.3159613660       -4.8743133518       -2.2648925684
 C         -4.8494197366       -3.6917718975       -1.7255176774
 C         -5.9172446471       -1.0274367574        0.4548776945
 C         -5.6569804771       -0.3046134636        1.6198339029
 C         -6.5646159719        0.6322142404        2.0725870987
 C         -7.7458478964        0.8552904040        1.3823065910
 C         -8.0157278144        0.1295544104        0.2334185102
 C         -7.1108557737       -0.8043761179       -0.2322702218
 C         -3.1939169615       -0.3595011481       -0.0439053839
 C         -1.8405488488       -0.0630552014        0.0341716993
 C         -1.0797533579        1.1504001343        0.0334445077
 C          0.2351640359        0.7063031006        0.0547615168
 H          0.0951363153        6.5665478549        1.1644858083
 H          1.4640683967        5.4492247716        1.1442823766
 H          0.0233039510        5.0642560950        2.0919869320
 H          1.3509483505        5.3516774080       -1.4110931668
 H         -0.0128393474        6.4767937725       -1.3863426954
 H         -0.1703123422        4.9140873052       -2.1966724452
 H         -2.1829475481        6.9078612303        0.0111763005
 H         -4.6220355198        6.5449108954        0.1660191677
 H         -5.5307565301        4.2626008512        0.3072609163
 H         -4.0482102801        2.3174533819        0.2712003709
 H          2.2145110899        3.4163270862       -0.0309812888
 H          4.3656709253        1.2253050586        0.0709974486
 H          8.1601695857        0.1451215778        0.7993618523
 H          9.4107185106        1.8989244770       -0.3853994592
 H          8.5487767745        2.8213759414       -2.5078918888
 H          6.4309298614        1.9617628702       -3.4442201185
 H          5.1883432760        0.1923808430       -2.2733724716
 H          5.2388538378       -2.0406497810        2.3426574811
 H          6.4614628241       -3.8486516390        3.4787473663
 H          8.5048072590       -4.7942259909        2.4646409362
 H          9.3145080411       -3.9194222198        0.3017225147
 H          8.0846298995       -2.1256099505       -0.8453573676
 H          4.3132268100       -3.0670922284        0.0057228433
 H          1.8520822039       -3.0864100312        0.0545960773
 H         -0.6402416857       -3.3057482842        0.2298585709
 H         -3.0625831887       -3.7540930343        0.2180821924
 H         -7.0178852214       -3.3996790345        0.8580032833
 H         -7.8488090807       -5.4979399245       -0.1210139168
 H         -6.7568577358       -6.4531255293       -2.1194660415
 H         -4.8388941379       -5.2828737513       -3.1433445280
 H         -4.0195786911       -3.1716347996       -2.1802237002
 H         -4.7408399751       -0.4844769555        2.1626205789
 H         -6.3494942311        1.1897091664        2.9717944942
 H         -8.4511538089        1.5909148033        1.7376430319
 H         -8.9318428698        0.3002412817       -0.3122894608
 H         -7.3134016850       -1.3569332455       -1.1381102895
 H         -3.9174499978        0.4280115664       -0.1745079978
  91
       -136.85203001
 C          0.2473339584        5.6177948635       -0.1464396521
 C         -0.2121223762        4.6375212548       -1.2317014730
 C          0.4416787574        4.9842363870       -2.5730693845
 C         -1.7159709153        4.6310818914       -1.3504095039
 C         -2.5451811968        5.6606342002       -1.7141188480
 C         -3.9198153827        5.4376415205       -1.7776518945
 C         -4.4360853378        4.1813918074       -1.4844338497
 C         -3.6123835613        3.1392762438       -1.1132586836
 C         -2.2307712676        3.3506982010       -1.0293841666
 C         -1.1551304818        2.4843474143       -0.6857502756
 C          0.0832807646        3.2075986039       -0.8262929058
 C          1.3499322176        2.7073692205       -0.6371012151
 C          1.4572837914        1.3455979414       -0.2537958187
 C          2.4237738674        0.3313144280        0.0460940720
 C          3.8106063581        0.3129393726        0.0541749187
 C          4.4769952173       -0.8657883273        0.3885670635
 N          5.8760028779       -0.8941919145        0.3711365335
 C          6.5722124950       -1.6075415214        1.3480938684
 C          6.0980475014       -1.6461659360        2.6607600525
 C          6.7854269126       -2.3533980972        3.6269135312
 C          7.9530595439       -3.0275673487        3.3066451623
 C          8.4277736728       -2.9930377137        2.0050429225
 C          7.7454868894       -2.2933849229        1.0295680955
 C          6.5662657596       -0.2216373934       -0.6391915431
 C          7.7874610281        0.4008312334       -0.3740501172
 C          8.4631477672        1.0619386838       -1.3807197011
 C          7.9352588997        1.1208365444       -2.6605665760
 C          6.7207278230        0.5091150970       -2.9281026087
 C          6.0398027971       -0.1599361523       -1.9308939813
 C          3.7622021554       -2.0265301756        0.7318377503
 C          2.3761355431       -2.0364434071        0.7228911429
 C          1.7055319989       -0.8820655301        0.3791308858
 N          0.3571703545       -0.6116074173        0.2715646191
 C         -0.9067404329       -1.1191959137        0.3717948957
 C         -1.3476198405       -2.3887905532        0.7067597267
 C         -2.7021597204       -2.6419761861        0.7320931640
 C         -3.6297283869       -1.6154473080        0.4312380948
 N         -4.9953729007       -1.8979225082        0.4407484245
 C         -5.8424836840       -1.2528077222       -0.4677900914
 C         -7.1157134135       -0.8377450354       -0.0759065062
 C         -7.9409364276       -0.1893832270       -0.9740497919
 C         -7.5125942421        0.0595114412       -2.2678667768
 C         -6.2495699206       -0.3530819163       -2.6627946205
 C         -5.4195610022       -1.0081089453       -1.7753950536
 C         -5.5270667756       -2.7994206199        1.3640537061
 C         -6.5789312535       -3.6434983224        1.0032207485
 C         -7.1021138203       -4.5320793520        1.9210819340
 C         -6.5859169675       -4.5997240645        3.2058988379
 C         -5.5404860502       -3.7655460686        3.5684958091
 C         -5.0134131991       -2.8685587774        2.6607781941
 C         -3.1983793731       -0.3354263671        0.1052878040
 C         -1.8418836149       -0.0478612955        0.0434057287
 C         -1.0773761795        1.1220245315       -0.2701665492
 C          0.2355805895        0.7024892872       -0.1042607907
 H          1.3268934286        5.5697439789       -0.0227816861
 H         -0.2222924985        5.3697858973        0.8031414596
 H         -0.0287403019        6.6350325896       -0.4152471270
 H          0.1624990862        5.9898000104       -2.8796967274
 H          0.1154048375        4.2841556453       -3.3393936506
 H          1.5251930784        4.9329864332       -2.4939284918
 H         -2.1465099130        6.6369421915       -1.9525621550
 H         -4.5833221135        6.2406475347       -2.0629893170
 H         -5.5031975994        4.0172316157       -1.5497825659
 H         -4.0356350837        2.1707647978       -0.9046491233
 H          2.2248671476        3.3233391414       -0.7740525038
 H          4.3717017890        1.2033545676       -0.1869257217
 H          5.1947500635       -1.1107262882        2.9125636214
 H          6.4114135702       -2.3714397847        4.6399257434
 H          8.4892318739       -3.5765090325        4.0656516723
 H          9.3327673594       -3.5221613976        1.7453363837
 H          8.1092937848       -2.2802215079        0.0125801831
 H          8.1938309527        0.3697105929        0.6262572110
 H          9.4051815565        1.5426629423       -1.1619277810
 H          8.4657987191        1.6406824448       -3.4436011390
 H          6.3040005198        0.5459464764       -3.9236874250
 H          5.0998097426       -0.6471245676       -2.1436419323
 H          4.3061087115       -2.9245494098        0.9798024458
 H          1.8409753418       -2.9416733321        0.9660541004
 H         -0.6428001605       -3.1755266503        0.9290201634
 H         -3.0667462492       -3.6321001390        0.9554754164
 H         -7.4444059388       -1.0155596137        0.9375656046
 H         -8.9216436392        0.1334102343       -0.6573277460
 H         -8.1580906900        0.5723258243       -2.9643750804
 H         -5.9097161588       -0.1672529147       -3.6705803150
 H         -4.4389644055       -1.3370880121       -2.0857586925
 H         -6.9725564217       -3.6011897127       -0.0018355154
 H         -7.9134682062       -5.1824353583        1.6294678445
 H         -6.9968818474       -5.2971962951        3.9196751177
 H         -5.1384621973       -3.8069737030        4.5699291918
 H         -4.2098172230       -2.2068268451        2.9476622071
 H         -3.9312642687        0.4316299189       -0.0826411087
  91
       -136.85051039
 C          0.2880645009        5.4584977807        1.4949696943
 C         -0.1871643587        4.7972144240        0.1974411997
 C          0.4617822600        5.4759835900       -1.0145544707
 C         -1.6907023639        4.8334937120        0.0833795047
 C         -2.5137785954        5.9285596845        0.0319023912
 C         -3.8891256811        5.7410228683       -0.0983309134
 C         -4.4127142779        4.4561310351       -0.1818653043
 C         -3.5956345333        3.3469409242       -0.1267896533
 C         -2.2123030736        3.5171022679        0.0149307768
 C         -1.1439923889        2.5824309581        0.0972386056
 C          0.0980417279        3.3088910408        0.1991869183
 C          1.3595517197        2.7687236318        0.2692917601
 C          1.4609844222        1.3534257887        0.2311735442
 C          2.4235059675        0.2932274729        0.2160029415
 C          3.8116088413        0.2657541288        0.2383513373
 C          4.4680779639       -0.9562392510        0.1145543241
 N          5.8721585208       -0.9896408923        0.0832207050
 C          6.5071697146       -1.7241415277       -0.9172445125
 C          7.7196460476       -2.3728406472       -0.6766315133
 C          8.3383321933       -3.0845514363       -1.6854743915
 C          7.7603980178       -3.1713486522       -2.9420963291
 C          6.5496327001       -2.5415997597       -3.1822207483
 C          5.9251471311       -1.8225279060       -2.1831737782
 C          6.5953509548       -0.2608430990        1.0240003115
 C          7.8220799731        0.3221323180        0.6988425931
 C          8.5285279187        1.0301606211        1.6507343604
 C          8.0267171243        1.1784292467        2.9339077277
 C          6.8028921380        0.6144508171        3.2582461409
 C          6.0903593723       -0.1000381284        2.3165395620
 C          3.7522648604       -2.1580164730       -0.0056079896
 C          2.3655068758       -2.1622462111        0.0121275291
 C          1.7020719228       -0.9593200033        0.1198650864
 N          0.3536266197       -0.6639264719        0.1069983257
 C         -0.9118076412       -1.1746393794        0.0419858173
 C         -1.3528016800       -2.4872495284        0.0322936846
 C         -2.7081205704       -2.7354728474       -0.0053912958
 C         -3.6284839051       -1.6631459443       -0.0582110957
 N         -4.9969426602       -1.9416257508       -0.1373152697
 C         -5.8029762456       -1.1821910756       -0.9883521665
 C         -5.3031135325       -0.7415877325       -2.2154761299
 C         -6.0978265814        0.0047131951       -3.0618734234
 C         -7.3992554975        0.3215030884       -2.7049403745
 C         -7.8987092098       -0.1087613912       -1.4861630486
 C         -7.1106496597       -0.8514632823       -0.6289679533
 C         -5.5479895771       -2.9532867649        0.6475495377
 C         -5.0437680579       -3.2006828155        1.9263224534
 C         -5.5968276780       -4.1934939704        2.7102232960
 C         -6.6567364104       -4.9519236471        2.2393570312
 C         -7.1555904072       -4.7159699639        0.9676843239
 C         -6.6071533098       -3.7295444333        0.1727375582
 C         -3.1993782596       -0.3432093428       -0.0465241883
 C         -1.8424651331       -0.0505436300        0.0167705123
 C         -1.0738386010        1.1562679297        0.0868545715
 C          0.2364269428        0.7011820571        0.1517379114
 H          0.0227833200        6.5133884838        1.4994945540
 H          1.3675810299        5.3706510778        1.5940833845
 H         -0.1796029854        4.9790816420        2.3523469751
 H          0.1938931511        6.5297185885       -1.0452133598
 H          0.1199666734        5.0040137386       -1.9333635656
 H          1.5449603963        5.3928981935       -0.9637545606
 H         -2.1098997458        6.9298749099        0.0873444658
 H         -4.5480311416        6.5956659717       -0.1400819410
 H         -5.4804912106        4.3249020646       -0.2925278389
 H         -4.0231836565        2.3611159268       -0.2016287236
 H          2.2363560018        3.3931508603        0.3397405612
 H          4.3808649140        1.1804313052        0.3122973225
 H          8.1654068890       -2.3209351240        0.3058444489
 H          9.2765607947       -3.5814101057       -1.4871737870
 H          8.2493795581       -3.7265260028       -3.7279304193
 H          6.0929339317       -2.6011542269       -4.1590874313
 H          4.9898690857       -1.3182451094       -2.3755803858
 H          8.2090868308        0.2244960330       -0.3047496232
 H          9.4756509926        1.4766710754        1.3858757004
 H          8.5836719729        1.7316376873        3.6745879815
 H          6.4039655460        0.7251899771        4.2556801435
 H          5.1424443989       -0.5493370572        2.5730255813
 H          4.2968776394       -3.0844847633       -0.1009358697
 H          1.8254406725       -3.0938258834       -0.0608219630
 H         -0.6483103728       -3.3047974250        0.0501253480
 H         -3.0802682356       -3.7477564281       -0.0252918503
 H         -4.2930441639       -0.9983139473       -2.4983038386
 H         -5.7012070851        0.3348234746       -4.0103266553
 H         -8.0187333423        0.9019078110       -3.3713440574
 H         -8.9078799811        0.1433844941       -1.1958341188
 H         -7.4967810148       -1.1712364972        0.3277660988
 H         -4.2295641513       -2.5974616113        2.2994904669
 H         -5.2049171946       -4.3690070288        3.7011075357
 H         -7.0912068346       -5.7218016420        2.8585086092
 H         -7.9750101238       -5.3092906457        0.5897350900
 H         -6.9890176239       -3.5557266245       -0.8226035021
 H         -3.9366739724        0.4427128133       -0.0625830715
