  52
        -84.90366152
 O          7.7969807534        0.8310542041        0.0014592788
 C          6.6654882315        0.3626014151        0.0162675191
 C          6.3319429026       -1.0973358203        0.2069237570
 O          7.1582600793       -1.9917686457        0.3598786822
 C          4.8740591344       -1.1894343007        0.1633112600
 C          4.0010707561       -2.2480515197        0.2584706379
 C          2.6276619381       -1.9736106545        0.1756092724
 C          2.0993681747       -0.7038137807        0.0095851527
 C          0.6471355957       -0.5156979213        0.0009118828
 C         -0.1773595891       -1.3508859061       -0.7549632084
 C         -1.5449224311       -1.1860943529       -0.7580403120
 C         -2.1383177394       -0.1826929868        0.0118796571
 N         -3.5228002465       -0.0140089917        0.0147076132
 C         -4.3646933787       -1.1289817763       -0.0690978170
 C         -5.5482242789       -1.0657363964       -0.8047967549
 C         -6.3770987181       -2.1676696850       -0.8811444476
 C         -6.0399777603       -3.3456391654       -0.2342195978
 C         -4.8645555791       -3.4136601773        0.4961467140
 C         -4.0312084059       -2.3159762302        0.5837732007
 C         -4.0723252710        1.2694821034        0.1053452304
 C         -3.4622359428        2.3458719865       -0.5395890534
 C         -4.0073342927        3.6112057065       -0.4451860096
 C         -5.1664694912        3.8232381619        0.2836399535
 C         -5.7782651717        2.7566205815        0.9224750451
 C         -5.2381445726        1.4883330100        0.8398308364
 C         -1.3196375266        0.6456782634        0.7832999391
 C          0.0480619479        0.4817512349        0.7731245996
 C          2.9922992398        0.4037864164       -0.1271486935
 C          2.6884939741        1.7609852238       -0.3969186902
 C          3.6928488761        2.6915816662       -0.5070901073
 C          5.0580946625        2.3703113958       -0.3742412418
 C          5.3801305746        1.0570658491       -0.1412323527
 C          4.3481548251        0.1046916113       -0.0324973930
 H          4.3472577811       -3.2597476152        0.4001640327
 H          1.9410912506       -2.8022968692        0.2790501211
 H          0.2676738261       -2.1169930952       -1.3721607958
 H         -2.1668276334       -1.8253835115       -1.3670908647
 H         -5.8052851725       -0.1519880470       -1.3201218511
 H         -7.2880117408       -2.1090173210       -1.4579336941
 H         -6.6891779659       -4.2050898785       -0.2987921480
 H         -4.5983828700       -4.3256256712        1.0090084191
 H         -3.1220914272       -2.3655240725        1.1645405649
 H         -2.5671139249        2.1790534430       -1.1204971806
 H         -3.5281939422        4.4358827720       -0.9513548978
 H         -5.5904605748        4.8130694205        0.3530397762
 H         -6.6793865947        2.9145456003        1.4959659231
 H         -5.7099034476        0.6597624759        1.3473446309
 H         -1.7692515220        1.4076492209        1.4027836192
 H          0.6627904974        1.1060627244        1.4041605706
 H          1.6612515970        2.0623773679       -0.5369244978
 H          3.4335359066        3.7202793516       -0.7127951095
 H          5.8128353302        3.1350467555       -0.4681023334
  52
        -84.90342458
 O          7.7910779695        0.4652439199       -0.7533253049
 C          6.6633326582        0.1772000628       -0.3723510119
 C          6.3444490099       -0.6778725245        0.8300060458
 O          7.1801162336       -1.1939166134        1.5657933024
 C          4.8861147603       -0.7477671027        0.9028894860
 C          4.0227676102       -1.3907597413        1.7586996713
 C          2.6455460174       -1.2418033729        1.5334857347
 C          2.1059245368       -0.4837842162        0.5080035453
 C          0.6514536095       -0.3468156006        0.3890264564
 C         -0.1783204186       -1.4665057599        0.4605468488
 C         -1.5466032326       -1.3443644132        0.3560400963
 C         -2.1336651132       -0.0882736193        0.1852012256
 N         -3.5187496227        0.0390864244        0.0776560751
 C         -4.2651237661       -0.9439640002       -0.5821434368
 C         -3.7602617785       -1.5673754065       -1.7237389929
 C         -4.5024391095       -2.5353011765       -2.3713272538
 C         -5.7548874980       -2.8925631921       -1.8983382821
 C         -6.2613598626       -2.2745512497       -0.7661978364
 C         -5.5253941484       -1.3090575485       -0.1079243316
 C         -4.1678936819        1.1502042695        0.6280565285
 C         -5.2525014968        1.7302547876       -0.0305278549
 C         -5.8940459922        2.8230046528        0.5186238783
 C         -5.4649594614        3.3561952946        1.7235151384
 C         -4.3865357707        2.7849836185        2.3799546573
 C         -3.7410679143        1.6887970187        1.8423474488
 C         -1.3089410421        1.0376432561        0.1286400894
 C          0.0593208336        0.9068795884        0.2279577312
 C          2.9875979603        0.1657038498       -0.4100769330
 C          2.6675633871        0.9100756148       -1.5722518244
 C          3.6626412711        1.4528424398       -2.3479951119
 C          5.0331558347        1.3036734511       -2.0577182872
 C          5.3699161388        0.5635385639       -0.9525252296
 C          4.3473561423        0.0063944679       -0.1602229284
 H          4.3788391099       -1.9868182526        2.5841690738
 H          1.9668110921       -1.7259882530        2.2217890474
 H          0.2613458459       -2.4449776350        0.5846414880
 H         -2.1752286522       -2.2205586392        0.4154971120
 H         -2.7898267906       -1.2802501758       -2.1010515805
 H         -4.1035650190       -3.0074083266       -3.2566884199
 H         -6.3326176475       -3.6474285251       -2.4089179348
 H         -7.2338318257       -2.5517666350       -0.3878223736
 H         -5.9161052688       -0.8359719586        0.7809510732
 H         -5.5804267157        1.3221524671       -0.9752207858
 H         -6.7304739987        3.2651041294       -0.0013328460
 H         -5.9686019324        4.2102635434        2.1490048151
 H         -4.0507677839        3.1901025042        3.3228077729
 H         -2.9094061662        1.2357935200        2.3617653945
 H         -1.7511453164        2.0144376398       -0.0011006311
 H          0.6811184422        1.7893264189        0.2032722397
 H          1.6345990616        1.0353075196       -1.8605750682
 H          3.3910933819        2.0170669573       -3.2287305024
 H          5.7800781507        1.7479863246       -2.6962915102
  52
        -84.90310781
 O          7.7697270536       -0.1006238046       -1.0166846858
 C          6.6522891226       -0.1368409737       -0.5171767730
 C          6.3563312159       -0.4524623252        0.9293760223
 O          7.2050084064       -0.6982034789        1.7812456380
 C          4.9032783165       -0.3935809895        1.0680100071
 C          4.0583878686       -0.5758685503        2.1381077966
 C          2.6795857779       -0.4511438863        1.9124713416
 C          2.1173599071       -0.1537168408        0.6812436366
 C          0.6616381080       -0.1063155954        0.5345183598
 C          0.0276881822       -0.7155814846       -0.5506066392
 C         -1.3407826489       -0.6618123168       -0.6980729731
 C         -2.1324148180       -0.0079117614        0.2499394704
 N         -3.5153570956        0.0588961590        0.0994385456
 C         -4.2085068837       -0.9695452535       -0.5522057440
 C         -5.2670198972       -0.6679221423       -1.4092136849
 C         -5.9433606492       -1.6813383661       -2.0597661895
 C         -5.5756771091       -3.0038395644       -1.8710779953
 C         -4.5293526712       -3.3086067652       -1.0151901384
 C         -3.8504683638       -2.3033707018       -0.3548466477
 C         -4.2267732541        1.1656048467        0.5810521801
 C         -5.4792358632        0.9906768617        1.1696380543
 C         -6.1790618320        2.0808097245        1.6487360708
 C         -5.6437643106        3.3552271875        1.5529893412
 C         -4.4022059791        3.5343544188        0.9643242523
 C         -3.6968186464        2.4518698595        0.4765875017
 C         -1.5058650422        0.5755091776        1.3550155436
 C         -0.1360021368        0.5283052497        1.4888292615
 C          2.9828913676        0.0806330424       -0.4332938297
 C          2.6498330839        0.4907331238       -1.7481327130
 C          3.6291267969        0.6604582737       -2.6963704893
 C          4.9986014741        0.4628959188       -2.4324437200
 C          5.3512168225        0.1070724978       -1.1551820858
 C          4.3444507000       -0.0679817121       -0.1857502257
 H          4.4302784921       -0.8180389978        3.1212692163
 H          2.0162284069       -0.6310716452        2.7468615554
 H          0.6163288361       -1.2575874220       -1.2752579209
 H         -1.8073181233       -1.1225402370       -1.5560786183
 H         -5.5453350494        0.3638413296       -1.5668750018
 H         -6.7559218707       -1.4356320486       -2.7269308038
 H         -6.1028034961       -3.7923222161       -2.3857956948
 H         -4.2439969205       -4.3374748277       -0.8544834932
 H         -3.0438598332       -2.5427503089        0.3224416841
 H         -5.8912274495       -0.0040824269        1.2554308293
 H         -7.1446516237        1.9328025213        2.1085940174
 H         -6.1913499941        4.2038900411        1.9329479590
 H         -3.9832770730        4.5255527708        0.8759457928
 H         -2.7358024456        2.5945954331        0.0046855156
 H         -2.1046929498        1.0633499754        2.1097114197
 H          0.3296722584        1.0053256163        2.3382408881
 H          1.6205002357        0.6923990530       -2.0032231920
 H          3.3451220674        0.9687144742       -3.6924416594
 H          5.7332373587        0.6062441173       -3.2090222179
  52
        -84.90280750
 O          7.7226626834       -1.1097484244       -0.5745457940
 C          6.6210636227       -0.6422361360       -0.3178524141
 C          6.3720037617        0.7242407546        0.2749981096
 O          7.2497768222        1.5241265325        0.5858956165
 C          4.9229598695        0.8580768712        0.3882631640
 C          4.1114799409        1.8677243457        0.8521514495
 C          2.7247536510        1.6677596253        0.8030112012
 C          2.1195747924        0.5160084287        0.3230167733
 C          0.6599756315        0.4385972233        0.2523342046
 C         -0.1349771611        0.9346279068        1.2891705498
 C         -1.5099227025        0.8745266649        1.2244850196
 C         -2.1375056352        0.2996182117        0.1187660625
 N         -3.5334992452        0.2067216754        0.0562679894
 C         -4.1123471131       -0.9896708878       -0.3741033089
 C         -3.5135515451       -2.2079601232       -0.0477831324
 C         -4.0799641432       -3.3954658867       -0.4662288033
 C         -5.2489588118       -3.3908526768       -1.2102226890
 C         -5.8448847927       -2.1840984855       -1.5406499681
 C         -5.2836570782       -0.9899835254       -1.1326167296
 C         -4.3169102970        1.3056653540        0.4114981969
 C         -3.8580432707        2.6006729788        0.1627518842
 C         -4.6352675578        3.6904717718        0.5012270420
 C         -5.8783633769        3.5115176166        1.0867541721
 C         -6.3352655092        2.2284208350        1.3427014635
 C         -5.5634843616        1.1312502436        1.0149718110
 C         -1.3532036931       -0.1837838701       -0.9290605003
 C          0.0205881030       -0.1028888739       -0.8663831213
 C          2.9491855990       -0.5618709050       -0.1224964801
 C          2.5723764389       -1.8571740239       -0.5569780342
 C          3.5212217579       -2.7610069253       -0.9688670355
 C          4.9018872720       -2.4820577217       -0.9669249067
 C          5.2965537539       -1.2528481690       -0.5037057684
 C          4.3208844800       -0.3270344278       -0.0861376481
 H          4.5160765770        2.7924155099        1.2326400239
 H          2.0907155483        2.4797976231        1.1301362397
 H          0.3360033942        1.3430977238        2.1706218172
 H         -2.1121617105        1.2536729552        2.0371621475
 H         -2.6108748328       -2.2134380330        0.5454041596
 H         -3.6104437871       -4.3310235384       -0.2011617805
 H         -5.6919971851       -4.3210581865       -1.5308232080
 H         -6.7509069845       -2.1719745589       -2.1278782870
 H         -5.7423789763       -0.0508720781       -1.4046088538
 H         -2.8971085139        2.7422157898       -0.3096086836
 H         -4.2721594820        4.6864271277        0.2959797709
 H         -6.4857177979        4.3656671347        1.3435405842
 H         -7.2975724062        2.0804474617        1.8096480915
 H         -5.9157977530        0.1335059877        1.2310194371
 H         -1.8353900939       -0.6062360802       -1.7985857976
 H          0.6088788315       -0.4261601543       -1.7116999056
 H          1.5327423626       -2.1472730815       -0.5449883929
 H          3.2029162538       -3.7379458156       -1.3036021824
 H          5.6119423337       -3.2214928272       -1.3020451722
  52
        -84.90257349
 O          7.7212441800       -1.0365833918       -0.6771466571
 C          6.6189352651       -0.5977570658       -0.3771113169
 C          6.3640234146        0.7299132358        0.2958391600
 O          7.2374011809        1.5230201541        0.6351221956
 C          4.9157757066        0.8387098649        0.4406259561
 C          4.1005001928        1.8099159804        0.9746775746
 C          2.7153218525        1.5981482243        0.9318118718
 C          2.1154269068        0.4700726577        0.3925609720
 C          0.6561515622        0.3890312678        0.3203694325
 C         -0.1425994254        0.8300819724        1.3788507144
 C         -1.5175754540        0.7812029126        1.3023029032
 C         -2.1401866553        0.2711440557        0.1629118592
 N         -3.5372053939        0.1983149935        0.0796164676
 C         -4.1180864207       -0.9780017968       -0.4016998019
 C         -3.5483011686       -2.2114445462       -0.0811019907
 C         -4.1135110716       -3.3809017128       -0.5491539452
 C         -5.2508324319       -3.3419260266       -1.3398312747
 C         -5.8163703392       -2.1195525342       -1.6662425944
 C         -5.2571774769       -0.9432650576       -1.2066578501
 C         -4.3123590359        1.2983756973        0.4441181954
 C         -3.8189663815        2.5925078621        0.2652312874
 C         -4.5888243693        3.6843509643        0.6134107945
 C         -5.8587843774        3.5092262161        1.1393606226
 C         -6.3503928259        2.2269411816        1.3259886835
 C         -5.5866505723        1.1273009879        0.9884257049
 C         -1.3522482162       -0.1658180175       -0.9019567268
 C          0.0213377931       -0.0934965246       -0.8275629441
 C          2.9500418646       -0.5727433347       -0.1218503760
 C          2.5806512141       -1.8459010534       -0.6230742999
 C          3.5327478679       -2.7135265033       -1.1002226593
 C          4.9101017095       -2.4185349558       -1.1035914322
 C          5.2985032502       -1.2134866143       -0.5760406730
 C          4.3195209524       -0.3248143276       -0.0911964311
 H          4.5006991003        2.7158052678        1.4020766731
 H          2.0776453420        2.3835190949        1.3125062417
 H          0.3249410443        1.1890354937        2.2833929313
 H         -2.1238731488        1.1219476256        2.1288354283
 H         -2.6696973758       -2.2421949389        0.5465390028
 H         -3.6688034789       -4.3291179990       -0.2864560970
 H         -5.6928610298       -4.2580284607       -1.7000507427
 H         -6.6960353187       -2.0811921076       -2.2911891351
 H         -5.6903071190        0.0088058115       -1.4755434316
 H         -2.8368852762        2.7326362205       -0.1618201367
 H         -4.1984996600        4.6795945617        0.4615863596
 H         -6.4605477902        4.3653854480        1.4024141757
 H         -7.3350758101        2.0814184210        1.7445233912
 H         -5.9668255248        0.1296144741        1.1507832264
 H         -1.8314678710       -0.5416689855       -1.7941613285
 H          0.6131956913       -0.3739935765       -1.6853828156
 H          1.5446688844       -2.1488659230       -0.6112792518
 H          3.2199031894       -3.6738398096       -1.4846051498
 H          5.6229004246       -3.1292479340       -1.4910047016
