82
 energy: -122.864734693965 gnorm: 0.000055250796 xtb: 6.7.1 (edcfbbe)
C           -7.08441358597630       -5.22341012450729        0.67705773949069
C           -5.74976759256480       -5.08206619246809        1.02255603503729
C           -5.11016480893140       -3.87113959121586        0.84077016423628
C           -5.79810770216199       -2.77779191763213        0.31437783857740
C           -5.09072292953685       -1.51794377052047        0.13441932987963
N           -3.74193878630556       -1.50242063035508       -0.06337243625891
C           -3.39046705378926       -0.24957859545623       -0.22448439766952
C           -2.01268265457704        0.17121804042070       -0.41411161269177
C           -1.14529204848163       -0.68219225632159       -1.09184973877043
C            0.18512319914684       -0.35789000295719       -1.27301397378782
C            0.68493751084174        0.83829919727061       -0.76371317372785
O            1.97221495426105        1.25569829966455       -0.87067078751383
C            2.92877993762555        0.39151510847916       -1.46309341648573
C            4.30960574884357        1.01879755913417       -1.29353564999997
C            4.72788167020089        1.16510197109154        0.17037126156160
C            5.01803505770811       -0.17379243152310        0.86618722425489
C            6.15838922466266       -0.91304703458402        0.22454412224910
C            5.95210119284399       -1.97757870335115       -0.63854114418260
C            7.00488645338409       -2.65159866355814       -1.25456060628229
C            8.31566815860350       -2.28668783273715       -1.02585399097151
C            8.56328045530476       -1.22710507359750       -0.16098503758941
C            7.48433725316075       -0.54858336556437        0.45261243187573
N            7.98734038908750        0.44749684364463        1.25418312183328
C            9.35642138149353        0.43501905686220        1.19049754454149
C           10.28028807088597        1.24715815184143        1.83187349807370
C           11.62000383270113        1.01711356801574        1.58321380319081
C           12.03435939089905        0.00568573161245        0.71775239434925
C           11.11845305252019       -0.80578053860457        0.07736926259104
C            9.76497588767011       -0.59565402736190        0.31093677965169
C           -0.17972418274638        1.69318935492298       -0.07462402937864
C           -1.50527488577392        1.36520706278235        0.10123169155142
N           -4.47819109563666        0.58064316548308       -0.14322008866734
C           -4.50805249326863        1.97947801174696       -0.30803404752740
C           -3.97694269292966        2.55075598211367       -1.45967038493453
C           -4.01833592692681        3.92298301784656       -1.62536977745128
C           -4.59396089426402        4.72622119880440       -0.65408319814375
C           -5.12524042349144        4.15493917616428        0.49043530457939
C           -5.08223805133447        2.78397187769059        0.66980908093779
C           -5.57456135153242       -0.22124975816832        0.09686424074176
C           -6.92157021578820        0.30895184609532        0.27085963295297
C           -7.46924018914145        1.19922007494650       -0.65116483327019
C           -8.74610557124240        1.69730285779469       -0.46689197222760
C           -9.49149269643218        1.31625537160134        0.63653116908472
C           -8.95615741034858        0.42703973228102        1.55533345372554
C           -7.68057710897900       -0.07342893048341        1.37679069630998
C           -7.13474203736873       -2.93437607877025       -0.04892472288041
C           -7.77073878414141       -4.14779977027497        0.13673968548831
H           -7.58605920837695       -6.16931179884758        0.82175082061269
H           -5.20642727601024       -5.91995586692824        1.43589958451445
H           -4.06983221534063       -3.74796025612853        1.10180836285938
H           -1.53360786531732       -1.61251612068042       -1.47712673140335
H            0.82062097865116       -1.04138539796976       -1.81326173535805
H            2.70709840502356        0.26556951303800       -2.53178047035236
H            2.89195638720348       -0.59181672876368       -0.98070879896848
H            4.29023006641822        2.00821415981350       -1.75406696398773
H            5.03547639497488        0.40335271838231       -1.82717585124683
H            3.93287508431201        1.68230900552410        0.71086983705590
H            5.62375576314072        1.78833503212269        0.20509298305870
H            4.12410026448892       -0.79824419702136        0.84679020323998
H            5.25320764698940        0.02379699373552        1.91570181749572
H            4.94002774568988       -2.30031973672786       -0.83796138403203
H            6.78406603712336       -3.47422844530440       -1.91934151336696
H            9.13081113203248       -2.81067633195651       -1.50195455091700
H            7.43984709263096        1.07124985171295        1.82171938333172
H            9.96320922648663        2.03200394247152        2.50312465315186
H           12.36326687390827        1.63280184162504        2.06902242281699
H           13.09121969043931       -0.14243654030234        0.54916090931506
H           11.44487309127652       -1.58864448415074       -0.59124579215643
H            0.21944478998418        2.61244248918188        0.32532418665934
H           -2.14267928595081        2.03223440075745        0.66168867563547
H           -3.53505455203729        1.91595498113499       -2.21373741672785
H           -3.60449047556840        4.36389812832784       -2.51974182734961
H           -4.62881847060889        5.79656640388733       -0.78976762713694
H           -5.57300962136227        4.77695536775409        1.25083490075359
H           -5.48853612013263        2.33279378505595        1.56295687228388
H           -6.89733608401036        1.49039480535255       -1.52080801106164
H           -9.16025229578813        2.38467030722974       -1.19025048509920
H          -10.48764490554285        1.70824736807097        0.77944552029773
H           -9.53367842787305        0.12505648855322        2.41696565770898
H           -7.25854602271892       -0.76497369302722        2.09202262426024
H           -7.67272725585030       -2.10643330107899       -0.48676104397818
H           -8.80776723650107       -4.25609365303545       -0.14804169820322
