  82
       -122.82784457
 C         -3.8661672213       -5.0878698916       -0.9611770219
 C         -2.5025105372       -4.9469792449       -0.7586149178
 C         -1.9336764836       -3.6894016910       -0.7250574167
 C         -2.7209321340       -2.5493071566       -0.8873025204
 C         -2.0733040715       -1.2480993886       -0.8363010277
 N         -0.7464820272       -1.1340257640       -1.1145241354
 C         -0.4349965519        0.1334934578       -1.0089165996
 C          0.9237882155        0.6195537840       -1.1504299539
 C          1.4156762794        1.7238642528       -0.4556037474
 C          2.7471065508        2.0616030859       -0.5455443528
 C          3.6298440579        1.3150695443       -1.3288063080
 O          4.9288995730        1.7191147159       -1.2794677387
 C          5.9318188680        0.9854846096       -1.9509331174
 C          6.2331236705       -0.4038236777       -1.3787932468
 C          6.6895758297       -0.4105413718        0.0817673329
 C          5.5583894504       -0.1753878639        1.0875376477
 C          4.3891666769       -1.1229936663        0.9812566438
 C          4.4749826614       -2.4032375163        0.4567470454
 C          3.3645283791       -3.2386512825        0.3475508319
 C          2.1172107369       -2.8340563275        0.7726371055
 C          1.9976659281       -1.5719948982        1.3378493186
 C          3.1311560760       -0.7342736854        1.4410487871
 N          2.7602379742        0.4315781267        2.0661217882
 C          1.4204749958        0.3912581390        2.3458013762
 C          0.6166638174        1.3382174900        2.9619815778
 C         -0.7175019965        1.0279685153        3.1430319803
 C         -1.2425307144       -0.1914062215        2.7190573597
 C         -0.4461372088       -1.1384672124        2.1057963862
 C          0.8982147446       -0.8501483028        1.9135810620
 C          3.1308563928        0.2458817457       -2.0661132404
 C          1.7994901199       -0.1005628199       -1.9597008203
 N         -1.5353192573        0.8818218235       -0.6767735505
 C         -1.6165557499        2.2769803075       -0.5386440558
 C         -2.1783939162        2.8348606074        0.6038651052
 C         -2.2697313249        4.2094987739        0.7204241320
 C         -1.8057390089        5.0299595336       -0.2942796970
 C         -1.2480409118        4.4721592626       -1.4333245061
 C         -1.1558890734        3.0991189432       -1.5624192893
 C         -2.5907507553        0.0043617462       -0.5485821611
 C         -3.9344109991        0.4332285339       -0.1866701303
 C         -4.6255557817       -0.2260082855        0.8295494995
 C         -5.8965811807        0.1789488125        1.1875449477
 C         -6.4976150278        1.2461662405        0.5388495110
 C         -5.8221072457        1.9006811261       -0.4772586715
 C         -4.5497906627        1.4997104056       -0.8399830722
 C         -4.0873823669       -2.7004218781       -1.1143619349
 C         -4.6518344693       -3.9619473335       -1.1459140336
 H         -4.3138380692       -6.0707568831       -0.9836760797
 H         -1.8834916132       -5.8230631205       -0.6268152601
 H         -0.8728197372       -3.5580703281       -0.5808356453
 H          0.7695052405        2.2980856830        0.1897052646
 H          3.1391691134        2.9060577015        0.0015161762
 H          6.8196723783        1.6194146948       -1.8625580604
 H          5.6812662201        0.8922944942       -3.0167313377
 H          7.0259139701       -0.8276676909       -2.0000373959
 H          5.3543307622       -1.0401076369       -1.4706633230
 H          7.4471033411        0.3632657705        0.2281208886
 H          7.1635455900       -1.3714599284        0.2915056510
 H          5.1917508507        0.8448536016        0.9612352863
 H          5.9795462554       -0.2465107735        2.0971983037
 H          5.4291418618       -2.7804374274        0.1217988452
 H          3.4942087854       -4.2220766219       -0.0804932460
 H          1.2579079255       -3.4791763186        0.6816126315
 H          3.3588702923        1.2219907804        2.2249127810
 H          1.0194437292        2.2853095405        3.2914746779
 H         -1.3649402239        1.7432230583        3.6305700851
 H         -2.2912458905       -0.3947287588        2.8808331596
 H         -0.8580035458       -2.0804611762        1.7784810840
 H          3.7669519968       -0.3272189802       -2.7208617691
 H          1.4167658335       -0.9528396418       -2.4978708081
 H         -2.5312874025        2.1884227357        1.3912684881
 H         -2.7049020159        4.6413498317        1.6092598479
 H         -1.8795867001        6.1026768639       -0.1989708849
 H         -0.8888755001        5.1084524189       -2.2281574830
 H         -0.7248978249        2.6550343562       -2.4474468817
 H         -4.1555363850       -1.0595141454        1.3295509315
 H         -6.4213701494       -0.3373823028        1.9781764601
 H         -7.4905443261        1.5628172499        0.8213920164
 H         -6.2895571427        2.7265185004       -0.9935034858
 H         -4.0360161441        2.0057422798       -1.6444262942
 H         -4.7055110617       -1.8312416544       -1.2787422853
 H         -5.7130802329       -4.0679802008       -1.3209597262
