82
 energy: -122.869658933553 gnorm: 0.000034559564 xtb: 6.7.1 (edcfbbe)
C           -4.02684282719144       -5.04429960389786       -1.10822039386806
C           -2.67135154130900       -4.93743851332474       -0.83953950292588
C           -2.07457469131312       -3.69372181278682       -0.77084620208399
C           -2.82442318207212       -2.53306602025643       -0.96311866720726
C           -2.15462494095261       -1.24365435236882       -0.87884585435949
N           -0.81922355196208       -1.14361569933314       -1.12938150360603
C           -0.49711865428051        0.12130735891960       -1.00887309734858
C            0.86870743132947        0.59596012007656       -1.12522814795226
C            1.35573752652842        1.68857047422082       -0.40839897116780
C            2.68909953450827        2.02387414939689       -0.47368282458265
C            3.58249014067456        1.28127296902357       -1.24974333406513
O            4.88087890386570        1.68028400037158       -1.17657597465487
C            5.89015610761941        0.98775629118788       -1.89088398732990
C            6.24573787293496       -0.40233691662996       -1.35379384919944
C            6.78778786729941       -0.41620275883179        0.07736471979792
C            5.71363987046587       -0.20135307193563        1.14920119743546
C            4.54545893040878       -1.15363773873392        1.08472855015606
C            4.63650224377547       -2.44954447887911        0.59958241792468
C            3.53076163049234       -3.29420419050599        0.51739457312117
C            2.27937132358990       -2.87781930672966        0.91988849487999
C            2.15235405310889       -1.59616077264544        1.43940180355373
C            3.28540818620962       -0.75592787675336        1.53214311839645
N            2.90870148078741        0.42510844179688        2.12640425325479
C            1.56499690650927        0.39429953291261        2.38848119214586
C            0.75455606164012        1.35871222699531        2.96884005680680
C           -0.58643743663509        1.06340561533017        3.12205360449802
C           -1.11157688272186       -0.15943654478441        2.70751413008920
C           -0.30689850701220       -1.12636102420295        2.13733139139051
C            1.04514154394718       -0.85465187149539        1.97501926956768
C            3.09110692429965        0.22110210575047       -2.00562451245701
C            1.75501214439130       -0.11759547621470       -1.92905766624853
N           -1.59468832995170        0.87937030742732       -0.69340104861793
C           -1.66762075741988        2.27860866132521       -0.55769984118001
C           -2.23341226500595        2.84069940969048        0.58050841409623
C           -2.32165659997688        4.21636279671116        0.69456550039898
C           -1.84884259181966        5.03301060219645       -0.31944152145364
C           -1.28579429399480        4.47106476311877       -1.45409179846319
C           -1.19818665535698        3.09681043912435       -1.58053961673704
C           -2.66240571122169        0.01214714046767       -0.59229921412344
C           -4.00907764710390        0.44712143287109       -0.24315098233406
C           -4.70617684016733       -0.20273296263569        0.77534209169846
C           -5.98046297111142        0.20389987801721        1.12172681006734
C           -6.57854001166536        1.26384359454483        0.45814282958503
C           -5.89719302444570        1.90948952178208       -0.56020155789431
C           -4.62148710401953        1.50665523447362       -0.91055886463303
C           -4.18209917525951       -2.65127113792897       -1.25617882062908
C           -4.77556708212806       -3.89832018617120       -1.32288426880027
H           -4.49623524638576       -6.01621813117990       -1.15834552823607
H           -2.07934223274836       -5.82813168457272       -0.68275218637668
H           -1.01865049655384       -3.59164819793625       -0.57133066603811
H            0.69965003825871        2.25698481757658        0.23208919316398
H            3.07344065704903        2.86235625013427        0.08759809636431
H            6.76018859478015        1.64673834856929       -1.81007042345399
H            5.61148593203685        0.91140263879707       -2.94998365838885
H            7.00811619500988       -0.80505941574284       -2.02435760950507
H            5.37312308089170       -1.05285029437256       -1.40321150104940
H            7.54294786657966        0.36570012140243        0.18659944057616
H            7.28356228305997       -1.37311872916815        0.25016463340752
H            5.33586646078842        0.81902368890176        1.05843202523833
H            6.18789043428325       -0.28798249246196        2.13339094150260
H            5.59183164250767       -2.82925913856186        0.27086556694528
H            3.66439104522138       -4.29173041951373        0.12406325525018
H            1.42117601058220       -3.52766662115931        0.84404856120090
H            3.50800379338461        1.21635872873194        2.28251954528223
H            1.15674786200985        2.30955172674068        3.28716137234897
H           -1.24047864188560        1.79423812936698        3.57598758387716
H           -2.16689122561073       -0.35139372624017        2.84046741560090
H           -0.71942575719089       -2.07132707051964        1.81711494287236
H            3.73654844026186       -0.35266283993268       -2.65048818987981
H            1.37814523860648       -0.95979400530942       -2.48841636602814
H           -2.59293325686654        2.19559800892513        1.36677935661167
H           -2.76113619982037        4.64964312879835        1.58049381730555
H           -1.91978181895871        6.10622764190662       -0.22692528739791
H           -0.91927791284980        5.10332764747475       -2.24881986338148
H           -0.76547269399309        2.64915965996024       -2.46352861954379
H           -4.23734694770021       -1.03011885110064        1.28835733671191
H           -6.50828351535715       -0.30611244865020        1.91455716748045
H           -7.57381080344862        1.58199969200802        0.73122537273043
H           -6.36120435383396        2.73036609439663       -1.08745884642215
H           -4.10109375499379        2.00609447532018       -1.71543145101441
H           -4.77095170258914       -1.76529088373131       -1.44261163302498
H           -5.82959783074310       -3.97606044398956       -1.54923404954265
