82
 energy: -122.776599268494 gnorm: 0.000051139160 xtb: 6.7.1 (edcfbbe)
C           -3.86438745798752       -4.92702422111701       -0.71995803901932
C           -2.50747655023854       -4.77376950161140       -0.46353066684705
C           -1.94210917854106       -3.51721504243590       -0.45281728825366
C           -2.72639840184291       -2.37789995140093       -0.67979829035822
C           -2.07885549485833       -1.08837380506160       -0.67923273564654
N           -0.81472421011417       -0.98466553425323       -1.04957261383975
C           -0.48356702143494        0.31371953185447       -1.06599794325318
C            0.84496003394352        0.72685746225404       -1.27319505486246
C            1.37635243797949        1.99530769230370       -0.91985229947881
C            2.70674046858475        2.26586239278439       -1.08961087650786
C            3.58905050787081        1.31071076794675       -1.62446191044464
O            4.88383099740559        1.70577306928515       -1.71083099162978
C            5.88513286206191        0.81488736601116       -2.16660949680884
C            6.25813351556519       -0.30301718588950       -1.18587176264711
C            6.60932626046383        0.19757741639749        0.21887814887236
C            5.38629943889006        0.35919865608160        1.12923505915377
C            4.54667603839940       -0.88320442802722        1.29608786417604
C            5.08276019902954       -2.16333211605330        1.28162529501897
C            4.30249910246644       -3.30310277871299        1.46025077436756
C            2.94344983266451       -3.21182216462402        1.67956360425089
C            2.37183920887746       -1.94679761029869        1.71951069903913
C            3.17192213129006       -0.79713106926120        1.52088035324514
N            2.37243875679807        0.31667133367410        1.63791804763083
C            1.08409805513643       -0.07017715423896        1.89186772083339
C           -0.04861832683944        0.70276033568650        2.10240319418432
C           -1.23091598737253        0.04665225457716        2.38616765687503
C           -1.29020532597374       -1.34387492111414        2.45667498178289
C           -0.16594808103884       -2.11775506167880        2.24712950897010
C            1.03408468642091       -1.48200286759295        1.96109442816621
C            3.07854951767969        0.05690561230403       -1.99148827816815
C            1.75358731792065       -0.22738594903285       -1.80456357154131
N           -1.61600335822108        1.10791473416691       -0.77107497013431
C           -1.67536004405094        2.49981441252619       -0.79135889175165
C           -2.21326560658282        3.21283358719682        0.28540351386326
C           -2.27057821610995        4.59087883039163        0.24081481343206
C           -1.80040677625033        5.28101321062597       -0.86804949364858
C           -1.26580581262792        4.57755367725507       -1.93883751205595
C           -1.20194461304206        3.19954756464698       -1.90776572442698
C           -2.64196282765220        0.23078728718230       -0.45277878673883
C           -3.95527198519913        0.58096535818842       -0.05834740428126
C           -4.65761811715868       -0.24238709379323        0.85933469426899
C           -5.92789260086581        0.07816506454435        1.26944614621259
C           -6.56559184000915        1.21680207254527        0.78168589204537
C           -5.90165744796898        2.02911301314146       -0.13427840309646
C           -4.62523113883768        1.73115491168733       -0.54547070995816
C           -4.08661490466469       -2.54681531994042       -0.96944191536469
C           -4.64327375380748       -3.81056634434716       -0.98438240075767
H           -4.30846149770170       -5.91145719257272       -0.72575674221914
H           -1.89402513758772       -5.64213425350810       -0.27121526985610
H           -0.89112045472873       -3.37614390163336       -0.25454789727470
H            0.74416268395059        2.73939815941137       -0.46528937314175
H            3.11426504188319        3.22437660807622       -0.80267835818143
H            6.75090108510709        1.46534326901933       -2.32388530233732
H            5.59601885348524        0.38152916254566       -3.13246109383452
H            7.12025995609420       -0.81349929895962       -1.61921603005430
H            5.44571306211547       -1.02546608533185       -1.10727388734394
H            7.11349884651371        1.16352716011077        0.14543623841422
H            7.31006077167533       -0.49897538573817        0.68066893933658
H            4.75935564263436        1.16202571081130        0.73908868443134
H            5.73540869795225        0.67602913855444        2.11864465147375
H            6.14283437677664       -2.29220097574185        1.12856833272832
H            4.77883178859232       -4.27236120083136        1.43225504341918
H            2.33953307185279       -4.09446228542824        1.82572138197679
H            2.66342316801597        1.26488657187653        1.47434951736945
H           -0.00567983500929        1.78108132227669        2.04945259242308
H           -2.13070722545263        0.61865212436606        2.56353412950290
H           -2.23176734838853       -1.82116723822399        2.68664864725609
H           -0.21838301336350       -3.19409213089174        2.31184236983313
H            3.71874779491884       -0.69417385156217       -2.42481278383382
H            1.35914030133201       -1.19464981142270       -2.07095384180942
H           -2.57242877170505        2.67670924550468        1.15030815408675
H           -2.68209070470007        5.13292473587193        1.07975018612496
H           -1.85159400015550        6.35865515821624       -0.89814851478833
H           -0.90432084731575        5.10750538724190       -2.80787669458262
H           -0.79502516842051        2.64727626379918       -2.74246921594822
H           -4.15665030305916       -1.10752413178702        1.26531558647298
H           -6.43376616114900       -0.55486781187546        1.98462966949126
H           -7.56415948398912        1.46502684881481        1.10721828919555
H           -6.39805649572805        2.90192044170119       -0.53458834866557
H           -4.14716814369577        2.34716588018090       -1.29147444838029
H           -4.69506209252524       -1.68952791299123       -1.21375564961501
H           -5.69321006599740       -3.92677097858323       -1.21154382960364
