  52
  -84.9601689900000       0.194264272463906      !
 O          7.7788934717       -0.8887501730        0.1054202695
 C          6.6773076925       -0.4073359450        0.0467688358
 C          6.3558539666        1.0995045383       -0.2174523400
 O          7.1740678224        1.9676539364       -0.3876318434
 C          4.8893980308        1.1973335728       -0.2024927989
 C          4.0166764916        2.2499262554       -0.3516071585
 C          2.6421840252        1.9921959724       -0.2857719349
 C          2.1104468565        0.7285181112       -0.0789002008
 C          0.6572625759        0.5441586991       -0.0700327935
 C         -0.1637326017        1.3961671746        0.6693570928
 C         -1.5302948348        1.2257243208        0.6901439234
 C         -2.1296766346        0.2032864441       -0.0505007522
 N         -3.5079157055        0.0208691794       -0.0288766661
 C         -4.0509818887       -1.2681768750       -0.1311084507
 C         -3.4428203798       -2.3450148963        0.5124959882
 C         -3.9835672198       -3.6119739662        0.4089212099
 C         -5.1381969190       -3.8236078330       -0.3265226639
 C         -5.7498325460       -2.7552499013       -0.9618005838
 C         -5.2122465971       -1.4859300096       -0.8707538840
 C         -4.3697066565        1.1197082646        0.1009296685
 C         -4.0930155554        2.3181733791       -0.5550892736
 C         -4.9496311298        3.3942866221       -0.4255372317
 C         -6.0934344176        3.2912981592        0.3490095453
 C         -6.3747429271        2.1005102613        0.9984857556
 C         -5.5206214208        1.0211987434        0.8812266624
 C         -1.3126845203       -0.6334841262       -0.8158685477
 C          0.0546835420       -0.4687912104       -0.8177486907
 C          2.9950132370       -0.3730383661        0.1157363605
 C          2.6599296363       -1.7098262773        0.4293684240
 C          3.6386707860       -2.6616769158        0.5940262381
 C          5.0070396984       -2.3665545260        0.4725775922
 C          5.3686219871       -1.0700887706        0.2015264568
 C          4.3651776914       -0.0917361100        0.0353603639
 H          4.3774925294        3.2518702879       -0.5263555445
 H          1.9572277494        2.8157019425       -0.4299258155
 H          0.2840248500        2.1770619973        1.2663612429
 H         -2.1471992101        1.8779392164        1.2902402095
 H         -2.5495811059       -2.1790209103        1.0970603304
 H         -3.5045694301       -4.4378964265        0.9137650042
 H         -5.5594546264       -4.8143308916       -0.4025985662
 H         -6.6483852170       -2.9121869166       -1.5398771460
 H         -5.6858743217       -0.6547738828       -1.3722869488
 H         -3.2079265038        2.3959508833       -1.1695723992
 H         -4.7266414005        4.3167945315       -0.9409345212
 H         -6.7617165235        4.1332619369        0.4451139894
 H         -7.2619982474        2.0129575639        1.6078451732
 H         -5.7366993197        0.0954600379        1.3941627947
 H         -1.7636062246       -1.4098806130       -1.4159414113
 H          0.6653330017       -1.1046460723       -1.4419176386
 H          1.6230828648       -1.9820789217        0.5584955255
 H          3.3494043862       -3.6744810287        0.8338777935
 H          5.7502271720       -3.1374590639        0.6053718682
  52
  -84.9601658200000       0.193613709064573      !
 O          7.7292674492        1.1081260150        0.6605547256
 C          6.6514011554        0.6541980005        0.3758447182
 C          6.3987402996       -0.5693689938       -0.5639404067
 O          7.2547340482       -1.2142838479       -1.1148801308
 C          4.9392455375       -0.7369562863       -0.6074931729
 C          4.1159521928       -1.6404665750       -1.2380458608
 C          2.7317733397       -1.5103483377       -1.0736355123
 C          2.1433117773       -0.5158465761       -0.3074175582
 C          0.6831602887       -0.4206356719       -0.2394649674
 C         -0.0955103701       -1.5540032623       -0.0031202343
 C         -1.4692361647       -1.4730244896        0.0523072153
 C         -2.1177192022       -0.2516014325       -0.1503616218
 N         -3.5052701727       -0.1686240361       -0.1052671623
 C         -4.2911995111       -1.2370823930       -0.5622451370
 C         -3.9165552631       -1.9553530299       -1.6967407887
 C         -4.6977687888       -3.0029970755       -2.1445876842
 C         -5.8626110200       -3.3445075449       -1.4771184944
 C         -6.2407624980       -2.6305109436       -0.3518846058
 C         -5.4623952800       -1.5859814212        0.1081754949
 C         -4.1317785957        0.9900201212        0.3744220292
 C         -5.2963645220        1.4625139560       -0.2288649917
 C         -5.9158014425        2.5997729404        0.2519322670
 C         -5.3834813631        3.2858625348        1.3311916132
 C         -4.2257099909        2.8209625866        1.9329686107
 C         -3.6036878049        1.6797403529        1.4650357464
 C         -1.3417643648        0.8819678535       -0.4067336449
 C          0.0325242566        0.7973185889       -0.4430809957
 C          2.9768547596        0.4075029945        0.3897063077
 C          2.5823353133        1.4239287212        1.2890516906
 C          3.5164826092        2.2358048962        1.8883520576
 C          4.8954144135        2.1007858538        1.6544342235
 C          5.3149996537        1.1007846237        0.8124035355
 C          4.3574971719        0.2641184261        0.2002285584
 H          4.5217987095       -2.4263937739       -1.8563210393
 H          2.0850418746       -2.2031490580       -1.5929454717
 H          0.3894954791       -2.5024574448        0.1751434591
 H         -2.0551017178       -2.3560183517        0.2602990472
 H         -3.0149513821       -1.6817227319       -2.2253962826
 H         -4.3992338156       -3.5499462400       -3.0266579350
 H         -6.4722854877       -4.1611074343       -1.8323853870
 H         -7.1451485136       -2.8931440537        0.1766416963
 H         -5.7543340652       -1.0338751770        0.9895113345
 H         -5.7079608199        0.9335992792       -1.0759514298
 H         -6.8165800999        2.9565935952       -0.2250585053
 H         -5.8684685348        4.1759019004        1.7018368370
 H         -3.8085018517        3.3451611508        2.7800128464
 H         -2.7078673901        1.3114777421        1.9436364267
 H         -1.8294248207        1.8279605973       -0.5900016740
 H          0.6125592099        1.6770087813       -0.6806485386
 H          1.5355169261        1.5523753943        1.5203102578
 H          3.1825495724        3.0034332538        2.5710655839
 H          5.6023646263        2.7566655009        2.1385474583
  52
  -84.9601633900000       0.193116487721940      !
 O          7.7348645159        1.2885102119       -0.0404869992
 C          6.6555717481        0.7578642637        0.0043874413
 C          6.3996698180       -0.7647496803        0.2494744800
 O          7.2540130484       -1.5975440785        0.4193883928
 C          4.9393707831       -0.9275453866        0.2195859768
 C          4.1138093595       -2.0199722979        0.3490763471
 C          2.7299942529       -1.8235653778        0.2709800637
 C          2.1433312327       -0.5830272570        0.0711589513
 C          0.6829026451       -0.4714453857        0.0458931393
 C          0.0173667010        0.4983048863        0.7972839832
 C         -1.3576911411        0.5802324710        0.7903245317
 C         -2.1198187531       -0.3000706427        0.0172687915
 N         -3.5078102479       -0.2122649753        0.0034229344
 C         -4.2914536747       -1.3675540919       -0.1282122108
 C         -3.9160318708       -2.5534348180        0.5015869590
 C         -4.6931495598       -3.6876321213        0.3674697840
 C         -5.8566514736       -3.6562835193       -0.3835899316
 C         -6.2377835372       -2.4780797618       -1.0044514557
 C         -5.4623268413       -1.3411704159       -0.8843896807
 C         -4.1362817568        1.0364592731        0.1172465372
 C         -3.6078727894        2.1545260619       -0.5263200944
 C         -4.2326639309        3.3814106452       -0.4130365575
 C         -5.3928729864        3.5113490112        0.3323868463
 C         -5.9243709087        2.4018422977        0.9691457002
 C         -5.3024894602        1.1723547384        0.8684611672
 C         -1.4562590025       -1.2724856380       -0.7358079583
 C         -0.0821711035       -1.3602290626       -0.7102980100
 C          2.9789148159        0.5598708026       -0.0998529443
 C          2.5872294756        1.8845758528       -0.3992697889
 C          3.5238586933        2.8813573151       -0.5416531507
 C          4.9030366109        2.6459328600       -0.4117909716
 C          5.3198445555        1.3634239996       -0.1538446647
 C          4.3596786643        0.3392908440       -0.0088385743
 H          4.5176942397       -3.0065602582        0.5169691963
 H          2.0817163739       -2.6786157002        0.3983132317
 H          0.5855108651        1.1644660803        1.4298940013
 H         -1.8572285186        1.3222687261        1.3954785835
 H         -3.0161233175       -2.5769048938        1.0985634138
 H         -4.3919974868       -4.6001259192        0.8604374864
 H         -6.4629039753       -4.5435900870       -0.4832162814
 H         -7.1419871131       -2.4452117395       -1.5940486880
 H         -5.7562867068       -0.4258591261       -1.3768626721
 H         -2.7110347312        2.0513653784       -1.1194130147
 H         -3.8160418478        4.2394308258       -0.9195835358
 H         -5.8802714809        4.4706976564        0.4155607723
 H         -6.8263875352        2.4952748320        1.5555325441
 H         -5.7142067107        0.3092431765        1.3708326795
 H         -2.0298425482       -1.9535250168       -1.3467424877
 H          0.4144251918       -2.1056493597       -1.3138559827
 H          1.5402385054        2.1123309477       -0.5334413471
 H          3.1917101469        3.8836866247       -0.7697639229
 H          5.6120322263        3.4509011567       -0.5271944063
  52
  -84.9598870800000       0.144157111011428      !
 O          7.7828582009       -0.5361236730        0.7512708687
 C          6.6810766491       -0.2224563387        0.3815680038
 C          6.3593613312        0.7070515451       -0.8338281065
 O          7.1774074492        1.2290625250       -1.5482216233
 C          4.8927352245        0.7896406185       -0.8885611428
 C          4.0198219785        1.4630116397       -1.7107815496
 C          2.6449888273        1.3146517658       -1.4899125369
 C          2.1141422648        0.5217382513       -0.4844827582
 C          0.6604850601        0.3770885602       -0.3630672844
 C         -0.1733005261        1.4947954246       -0.3905840132
 C         -1.5408620012        1.3634459348       -0.2888144838
 C         -2.1263604344        0.1001986799       -0.1688723021
 N         -3.5068587403       -0.0385498733       -0.0709626532
 C         -4.1484897431       -1.1537202809       -0.6303856989
 C         -5.2186768312       -1.7535042364        0.0314099821
 C         -5.8572344143       -2.8440967036       -0.5265107441
 C         -5.4366041097       -3.3566609166       -1.7427459000
 C         -4.3719863284       -2.7651789803       -2.4027151568
 C         -3.7325327486       -1.6689243357       -1.8571315705
 C         -4.2757895430        0.9388551139        0.5774570008
 C         -5.5240534316        1.2999613430        0.0728455572
 C         -6.2860348355        2.2531733554        0.7201807797
 C         -5.8154508505        2.8645780305        1.8706196597
 C         -4.5744376969        2.5108199583        2.3741955868
 C         -3.8086751736        1.5525028843        1.7388360836
 C         -1.2944656840       -1.0226928259       -0.1562643580
 C          0.0729306368       -0.8834318192       -0.2496472201
 C          2.9988639040       -0.1539085127        0.4065115641
 C          2.6629535679       -0.9260624664        1.5417387105
 C          3.6416212503       -1.5143679631        2.3079503001
 C          5.0101966741       -1.3784535504        2.0196259864
 C          5.3723415869       -0.6064496870        0.9434970887
 C          4.3689499253        0.0010923068        0.1587242119
 H          4.3804143503        2.0836644283       -2.5166448992
 H          1.9599113895        1.8212438787       -2.1547897000
 H          0.2619560108        2.4796518891       -0.4760798281
 H         -2.1705065537        2.2404688283       -0.3107511917
 H         -5.5428785654       -1.3589986560        0.9832892570
 H         -6.6842275859       -3.3011958948       -0.0036590670
 H         -5.9358555602       -4.2107420420       -2.1740383907
 H         -4.0418020146       -3.1540761648       -3.3545894535
 H         -2.9103860054       -1.2013834201       -2.3791548501
 H         -5.8886360731        0.8293454384       -0.8284647340
 H         -7.2506968102        2.5256054845        0.3183984949
 H         -6.4121900210        3.6109660190        2.3721951878
 H         -4.2027982168        2.9776210138        3.2743966002
 H         -2.8462916656        1.2695406240        2.1398752646
 H         -1.7312225053       -2.0064705343       -0.0688472724
 H          0.6969625730       -1.7650451880       -0.2625943847
 H          1.6257368300       -1.0402415585        1.8192976611
 H          3.3520354964       -2.0980426950        3.1695746618
 H          5.7531333575       -1.8563317481        2.6393289942
  52
  -84.9598867700000       0.144109829409846      !
 O          7.7637267528       -0.0165042059        1.0403964112
 C          6.6687383078        0.0838487262        0.5506489027
 C          6.3622605079        0.5911512029       -0.8960361321
 O          7.1874382977        0.9336749984       -1.7046598153
 C          4.8987006511        0.5452561156       -1.0271779576
 C          4.0381087150        0.8454229639       -2.0570141341
 C          2.6626722924        0.6897248585       -1.8447628002
 C          2.1197042086        0.2507810339       -0.6474856131
 C          0.6637618627        0.1630355301       -0.4982608268
 C          0.0180209351        0.7323195959        0.5995504182
 C         -1.3518248072        0.6622309546        0.7308745819
 C         -2.1255876672        0.0096085390       -0.2323560951
 N         -3.5076992821       -0.0740645419       -0.0962190810
 C         -4.1972006686       -1.2066523915       -0.5522674482
 C         -3.6485392038       -2.4789886967       -0.3974895083
 C         -4.3344642938       -3.5907771168       -0.8465022354
 C         -5.5759123377       -3.4544461764       -1.4457193386
 C         -6.1276717472       -2.1927457561       -1.5959198834
 C         -5.4458905210       -1.0740813472       -1.1575296617
 C         -4.2248125319        0.9738736676        0.4996035230
 C         -3.8807596100        2.3005013705        0.2442622840
 C         -4.5927349041        3.3280617067        0.8320958194
 C         -5.6585618186        3.0516839748        1.6726969323
 C         -6.0073710759        1.7349530874        1.9245847702
 C         -5.2967616018        0.7002541159        1.3475049879
 C         -1.4819948537       -0.5537598462       -1.3373994616
 C         -0.1132761601       -0.4696983494       -1.4682955972
 C          2.9926089551       -0.1004829445        0.4235298308
 C          2.6465092115       -0.6480921533        1.6798078048
 C          3.6151398352       -0.9432338502        2.6101143258
 C          4.9831993112       -0.7297853423        2.3697447500
 C          5.3560474296       -0.2276538829        1.1474419599
 C          4.3632300985        0.0714561231        0.1901078867
 H          4.4080400378        1.2022180468       -3.0059629213
 H          1.9857303944        0.9502561005       -2.6459577576
 H          0.5972612779        1.2583069147        1.3443691993
 H         -1.8352359809        1.1091817493        1.5869275064
 H         -2.6857334563       -2.5885301106        0.0801273823
 H         -3.9000202711       -4.5712303639       -0.7186181894
 H         -6.1101723586       -4.3257920238       -1.7922664946
 H         -7.0931167449       -2.0770112840       -2.0657888516
 H         -5.8734787502       -0.0901252660       -1.2828927438
 H         -3.0569739376        2.5175843752       -0.4200785660
 H         -4.3187875636        4.3518551500        0.6243350893
 H         -6.2143148013        3.8573306637        2.1275503330
 H         -6.8341338306        1.5106736020        2.5821563572
 H         -5.5644913710       -0.3263204154        1.5506419182
 H         -2.0678963493       -1.0512435129       -2.0959227229
 H          0.3685290179       -0.9165479757       -2.3255410571
 H          1.6101005474       -0.8526316831        1.9031349682
 H          3.3184279062       -1.3621162786        3.5605206911
 H          5.7179984373       -0.9689377254        3.1228756901
  52
  -84.9596562400000       0.112914405281374      !
 O          7.8412008587       -0.6650090910       -0.1251370725
 C          6.7132400320       -0.2458668162       -0.0926404713
 C          6.2950328508        1.2534271026       -0.2338039051
 O          7.0526102640        2.1790888332       -0.3809144086
 C          4.8284368012        1.2620224615       -0.1430209464
 C          3.8924017836        2.2687103425       -0.1834887564
 C          2.5403888439        1.9251176747       -0.0756580439
 C          2.0885679156        0.6216639125        0.0746176852
 C          0.6449484155        0.3766251183        0.1157925978
 C         -0.1832816868        1.1943504132        0.8874329881
 C         -1.5497295723        1.0327400891        0.8774004067
 C         -2.1436226997        0.0514493725        0.0787075652
 N         -3.5308216205       -0.0587363170        0.0259037483
 C         -4.1521780555       -1.3064136802       -0.0958380742
 C         -3.6195979848       -2.4266920949        0.5413644391
 C         -4.2447096044       -3.6535256928        0.4288132711
 C         -5.4097411702       -3.7833995190       -0.3088979124
 C         -5.9430896425       -2.6733598358       -0.9430149690
 C         -5.3204278150       -1.4444423533       -0.8449753838
 C         -4.3074575333        1.1103830712        0.0531083325
 C         -3.8847462093        2.2476467447       -0.6339120364
 C         -4.6468124581        3.3993169485       -0.6077144404
 C         -5.8412977672        3.4329356828        0.0930376027
 C         -6.2674617161        2.3037818037        0.7731456641
 C         -5.5077939354        1.1495760900        0.7599886174
 C         -1.3189498737       -0.7836766846       -0.6780218972
 C          0.0500553982       -0.6217619259       -0.6571796831
 C          3.0419617919       -0.4352867805        0.1590327813
 C          2.8007514922       -1.8071859937        0.3992271132
 C          3.8392056865       -2.7074595958        0.4496932365
 C          5.1803391795       -2.3242005644        0.2800128566
 C          5.4532847827       -0.9933879650        0.0818094222
 C          4.3888054031       -0.0679782938        0.0325311028
 H          4.1868535093        3.2994702565       -0.3076903738
 H          1.8048539415        2.7140015838       -0.1423992713
 H          0.2583435315        1.9486965294        1.5216753704
 H         -2.1755015333        1.6694086603        1.4851135522
 H         -2.7208281641       -2.3253830273        1.1321831388
 H         -3.8251336566       -4.5122952061        0.9319447826
 H         -5.8989770293       -4.7421033389       -0.3884959242
 H         -6.8470977602       -2.7657315732       -1.5265468493
 H         -5.7323515724       -0.5839569705       -1.3514440129
 H         -2.9591934428        2.2186562458       -1.1904433007
 H         -4.3094752332        4.2727856384       -1.1459581879
 H         -6.4361790068        4.3333046065        0.1083980069
 H         -7.1951880804        2.3237415351        1.3255412610
 H         -5.8373425051        0.2721865600        1.2970130786
 H         -1.7642158143       -1.5430743145       -1.3038168605
 H          0.6653220537       -1.2416337476       -1.2926266942
 H          1.7899020281       -2.1492010551        0.5632422034
 H          3.6211629054       -3.7492374928        0.6345630436
 H          5.9719332912       -3.0562380621        0.3212137063
  52
  -84.9579116900000       1.782418504693455E-002 !
 O          7.5667244406       -0.8152719199        1.0194671363
 C          6.5246541287       -0.4302193461        0.5561139023
 C          6.3617511026        0.3621080993       -0.7824613728
 O          7.2619779827        0.6872632753       -1.5138315063
 C          4.9164350501        0.5935921431       -0.9303384068
 C          4.1553507864        1.1927830353       -1.9063094364
 C          2.7619638554        1.2107203635       -1.7523400435
 C          2.1134620953        0.6697362224       -0.6562042564
 C          0.6472547302        0.6631231008       -0.5716958522
 C         -0.0237922335        1.1714727104        0.5391692542
 C         -1.3913545585        1.0392306004        0.6619577195
 C         -2.1222765435        0.3645920570       -0.3172022934
 N         -3.4808511411        0.0919300802       -0.1525092618
 C         -3.9503989203       -1.1815292878       -0.5085272851
 C         -3.1557641587       -2.3062502984       -0.2875996299
 C         -3.6100613504       -3.5609863322       -0.6425500817
 C         -4.8631442647       -3.7162146027       -1.2120357347
 C         -5.6588528467       -2.6028825077       -1.4273137836
 C         -5.2093073046       -1.3420389448       -1.0838847857
 C         -4.3351212876        1.0186805452        0.4523712407
 C         -4.1655956181        2.3839582326        0.2232742881
 C         -5.0165595182        3.2985949188        0.8129926030
 C         -6.0492079751        2.8713624541        1.6315472629
 C         -6.2203082482        1.5163458887        1.8633448069
 C         -5.3703283763        0.5941260518        1.2849592682
 C         -1.4608868396       -0.0843702935       -1.4626208358
 C         -0.0983761536        0.0720092312       -1.5902337192
 C          2.8786982910        0.0418517718        0.3690622946
 C          2.3988010742       -0.6222027647        1.5206857294
 C          3.2688263773       -1.2227976333        2.3995063857
 C          4.6607550501       -1.2193011496        2.2047611944
 C          5.1585825131       -0.5946536857        1.0878263683
 C          4.2667671630        0.0243789894        0.1862251414
 H          4.6146854073        1.6360134739       -2.7764941942
 H          2.1628894080        1.6776569894       -2.5213124922
 H          0.5364584347        1.6756707773        1.3133728528
 H         -1.8983795524        1.4249526833        1.5341042381
 H         -2.1824952020       -2.1890241248        0.1665784038
 H         -2.9843824532       -4.4230309467       -0.4639620872
 H         -5.2169098198       -4.6986364673       -1.4849186693
 H         -6.6353711703       -2.7158068871       -1.8743418179
 H         -5.8274041398       -0.4740595202       -1.2603483555
 H         -3.3689176594        2.7191132929       -0.4249161822
 H         -4.8774417866        4.3529114884        0.6243862958
 H         -6.7152266407        3.5886743095        2.0861774713
 H         -7.0177709553        1.1735750444        2.5059823595
 H         -5.5005511376       -0.4608727570        1.4766026784
 H         -2.0265506095       -0.5765068291       -2.2397834015
 H          0.4059836966       -0.2998672482       -2.4699404158
 H          1.3351893912       -0.6696584489        1.7013760419
 H          2.8710854739       -1.7262035184        3.2686257861
 H          5.3153802964       -1.7058868752        2.9111714669
