  52
        -84.96016899
 O          7.7788934717       -0.8887501730        0.1054202695
 C          6.6773076925       -0.4073359450        0.0467688358
 C          6.3558539666        1.0995045383       -0.2174523400
 O          7.1740678224        1.9676539364       -0.3876318434
 C          4.8893980308        1.1973335728       -0.2024927989
 C          4.0166764916        2.2499262554       -0.3516071585
 C          2.6421840252        1.9921959724       -0.2857719349
 C          2.1104468565        0.7285181112       -0.0789002008
 C          0.6572625759        0.5441586991       -0.0700327935
 C         -0.1637326017        1.3961671746        0.6693570928
 C         -1.5302948348        1.2257243208        0.6901439234
 C         -2.1296766346        0.2032864441       -0.0505007522
 N         -3.5079157055        0.0208691794       -0.0288766661
 C         -4.0509818887       -1.2681768750       -0.1311084507
 C         -3.4428203798       -2.3450148963        0.5124959882
 C         -3.9835672198       -3.6119739662        0.4089212099
 C         -5.1381969190       -3.8236078330       -0.3265226639
 C         -5.7498325460       -2.7552499013       -0.9618005838
 C         -5.2122465971       -1.4859300096       -0.8707538840
 C         -4.3697066565        1.1197082646        0.1009296685
 C         -4.0930155554        2.3181733791       -0.5550892736
 C         -4.9496311298        3.3942866221       -0.4255372317
 C         -6.0934344176        3.2912981592        0.3490095453
 C         -6.3747429271        2.1005102613        0.9984857556
 C         -5.5206214208        1.0211987434        0.8812266624
 C         -1.3126845203       -0.6334841262       -0.8158685477
 C          0.0546835420       -0.4687912104       -0.8177486907
 C          2.9950132370       -0.3730383661        0.1157363605
 C          2.6599296363       -1.7098262773        0.4293684240
 C          3.6386707860       -2.6616769158        0.5940262381
 C          5.0070396984       -2.3665545260        0.4725775922
 C          5.3686219871       -1.0700887706        0.2015264568
 C          4.3651776914       -0.0917361100        0.0353603639
 H          4.3774925294        3.2518702879       -0.5263555445
 H          1.9572277494        2.8157019425       -0.4299258155
 H          0.2840248500        2.1770619973        1.2663612429
 H         -2.1471992101        1.8779392164        1.2902402095
 H         -2.5495811059       -2.1790209103        1.0970603304
 H         -3.5045694301       -4.4378964265        0.9137650042
 H         -5.5594546264       -4.8143308916       -0.4025985662
 H         -6.6483852170       -2.9121869166       -1.5398771460
 H         -5.6858743217       -0.6547738828       -1.3722869488
 H         -3.2079265038        2.3959508833       -1.1695723992
 H         -4.7266414005        4.3167945315       -0.9409345212
 H         -6.7617165235        4.1332619369        0.4451139894
 H         -7.2619982474        2.0129575639        1.6078451732
 H         -5.7366993197        0.0954600379        1.3941627947
 H         -1.7636062246       -1.4098806130       -1.4159414113
 H          0.6653330017       -1.1046460723       -1.4419176386
 H          1.6230828648       -1.9820789217        0.5584955255
 H          3.3494043862       -3.6744810287        0.8338777935
 H          5.7502271720       -3.1374590639        0.6053718682
  52
        -84.95988708
 O          7.7828582009       -0.5361236730        0.7512708687
 C          6.6810766491       -0.2224563387        0.3815680038
 C          6.3593613312        0.7070515451       -0.8338281065
 O          7.1774074492        1.2290625250       -1.5482216233
 C          4.8927352245        0.7896406185       -0.8885611428
 C          4.0198219785        1.4630116397       -1.7107815496
 C          2.6449888273        1.3146517658       -1.4899125369
 C          2.1141422648        0.5217382513       -0.4844827582
 C          0.6604850601        0.3770885602       -0.3630672844
 C         -0.1733005261        1.4947954246       -0.3905840132
 C         -1.5408620012        1.3634459348       -0.2888144838
 C         -2.1263604344        0.1001986799       -0.1688723021
 N         -3.5068587403       -0.0385498733       -0.0709626532
 C         -4.1484897431       -1.1537202809       -0.6303856989
 C         -5.2186768312       -1.7535042364        0.0314099821
 C         -5.8572344143       -2.8440967036       -0.5265107441
 C         -5.4366041097       -3.3566609166       -1.7427459000
 C         -4.3719863284       -2.7651789803       -2.4027151568
 C         -3.7325327486       -1.6689243357       -1.8571315705
 C         -4.2757895430        0.9388551139        0.5774570008
 C         -5.5240534316        1.2999613430        0.0728455572
 C         -6.2860348355        2.2531733554        0.7201807797
 C         -5.8154508505        2.8645780305        1.8706196597
 C         -4.5744376969        2.5108199583        2.3741955868
 C         -3.8086751736        1.5525028843        1.7388360836
 C         -1.2944656840       -1.0226928259       -0.1562643580
 C          0.0729306368       -0.8834318192       -0.2496472201
 C          2.9988639040       -0.1539085127        0.4065115641
 C          2.6629535679       -0.9260624664        1.5417387105
 C          3.6416212503       -1.5143679631        2.3079503001
 C          5.0101966741       -1.3784535504        2.0196259864
 C          5.3723415869       -0.6064496870        0.9434970887
 C          4.3689499253        0.0010923068        0.1587242119
 H          4.3804143503        2.0836644283       -2.5166448992
 H          1.9599113895        1.8212438787       -2.1547897000
 H          0.2619560108        2.4796518891       -0.4760798281
 H         -2.1705065537        2.2404688283       -0.3107511917
 H         -5.5428785654       -1.3589986560        0.9832892570
 H         -6.6842275859       -3.3011958948       -0.0036590670
 H         -5.9358555602       -4.2107420420       -2.1740383907
 H         -4.0418020146       -3.1540761648       -3.3545894535
 H         -2.9103860054       -1.2013834201       -2.3791548501
 H         -5.8886360731        0.8293454384       -0.8284647340
 H         -7.2506968102        2.5256054845        0.3183984949
 H         -6.4121900210        3.6109660190        2.3721951878
 H         -4.2027982168        2.9776210138        3.2743966002
 H         -2.8462916656        1.2695406240        2.1398752646
 H         -1.7312225053       -2.0064705343       -0.0688472724
 H          0.6969625730       -1.7650451880       -0.2625943847
 H          1.6257368300       -1.0402415585        1.8192976611
 H          3.3520354964       -2.0980426950        3.1695746618
 H          5.7531333575       -1.8563317481        2.6393289942
  52
        -84.95965624
 O          7.8412008587       -0.6650090910       -0.1251370725
 C          6.7132400320       -0.2458668162       -0.0926404713
 C          6.2950328508        1.2534271026       -0.2338039051
 O          7.0526102640        2.1790888332       -0.3809144086
 C          4.8284368012        1.2620224615       -0.1430209464
 C          3.8924017836        2.2687103425       -0.1834887564
 C          2.5403888439        1.9251176747       -0.0756580439
 C          2.0885679156        0.6216639125        0.0746176852
 C          0.6449484155        0.3766251183        0.1157925978
 C         -0.1832816868        1.1943504132        0.8874329881
 C         -1.5497295723        1.0327400891        0.8774004067
 C         -2.1436226997        0.0514493725        0.0787075652
 N         -3.5308216205       -0.0587363170        0.0259037483
 C         -4.1521780555       -1.3064136802       -0.0958380742
 C         -3.6195979848       -2.4266920949        0.5413644391
 C         -4.2447096044       -3.6535256928        0.4288132711
 C         -5.4097411702       -3.7833995190       -0.3088979124
 C         -5.9430896425       -2.6733598358       -0.9430149690
 C         -5.3204278150       -1.4444423533       -0.8449753838
 C         -4.3074575333        1.1103830712        0.0531083325
 C         -3.8847462093        2.2476467447       -0.6339120364
 C         -4.6468124581        3.3993169485       -0.6077144404
 C         -5.8412977672        3.4329356828        0.0930376027
 C         -6.2674617161        2.3037818037        0.7731456641
 C         -5.5077939354        1.1495760900        0.7599886174
 C         -1.3189498737       -0.7836766846       -0.6780218972
 C          0.0500553982       -0.6217619259       -0.6571796831
 C          3.0419617919       -0.4352867805        0.1590327813
 C          2.8007514922       -1.8071859937        0.3992271132
 C          3.8392056865       -2.7074595958        0.4496932365
 C          5.1803391795       -2.3242005644        0.2800128566
 C          5.4532847827       -0.9933879650        0.0818094222
 C          4.3888054031       -0.0679782938        0.0325311028
 H          4.1868535093        3.2994702565       -0.3076903738
 H          1.8048539415        2.7140015838       -0.1423992713
 H          0.2583435315        1.9486965294        1.5216753704
 H         -2.1755015333        1.6694086603        1.4851135522
 H         -2.7208281641       -2.3253830273        1.1321831388
 H         -3.8251336566       -4.5122952061        0.9319447826
 H         -5.8989770293       -4.7421033389       -0.3884959242
 H         -6.8470977602       -2.7657315732       -1.5265468493
 H         -5.7323515724       -0.5839569705       -1.3514440129
 H         -2.9591934428        2.2186562458       -1.1904433007
 H         -4.3094752332        4.2727856384       -1.1459581879
 H         -6.4361790068        4.3333046065        0.1083980069
 H         -7.1951880804        2.3237415351        1.3255412610
 H         -5.8373425051        0.2721865600        1.2970130786
 H         -1.7642158143       -1.5430743145       -1.3038168605
 H          0.6653220537       -1.2416337476       -1.2926266942
 H          1.7899020281       -2.1492010551        0.5632422034
 H          3.6211629054       -3.7492374928        0.6345630436
 H          5.9719332912       -3.0562380621        0.3212137063
  52
        -84.95791169
 O          7.5667244406       -0.8152719199        1.0194671363
 C          6.5246541287       -0.4302193461        0.5561139023
 C          6.3617511026        0.3621080993       -0.7824613728
 O          7.2619779827        0.6872632753       -1.5138315063
 C          4.9164350501        0.5935921431       -0.9303384068
 C          4.1553507864        1.1927830353       -1.9063094364
 C          2.7619638554        1.2107203635       -1.7523400435
 C          2.1134620953        0.6697362224       -0.6562042564
 C          0.6472547302        0.6631231008       -0.5716958522
 C         -0.0237922335        1.1714727104        0.5391692542
 C         -1.3913545585        1.0392306004        0.6619577195
 C         -2.1222765435        0.3645920570       -0.3172022934
 N         -3.4808511411        0.0919300802       -0.1525092618
 C         -3.9503989203       -1.1815292878       -0.5085272851
 C         -3.1557641587       -2.3062502984       -0.2875996299
 C         -3.6100613504       -3.5609863322       -0.6425500817
 C         -4.8631442647       -3.7162146027       -1.2120357347
 C         -5.6588528467       -2.6028825077       -1.4273137836
 C         -5.2093073046       -1.3420389448       -1.0838847857
 C         -4.3351212876        1.0186805452        0.4523712407
 C         -4.1655956181        2.3839582326        0.2232742881
 C         -5.0165595182        3.2985949188        0.8129926030
 C         -6.0492079751        2.8713624541        1.6315472629
 C         -6.2203082482        1.5163458887        1.8633448069
 C         -5.3703283763        0.5941260518        1.2849592682
 C         -1.4608868396       -0.0843702935       -1.4626208358
 C         -0.0983761536        0.0720092312       -1.5902337192
 C          2.8786982910        0.0418517718        0.3690622946
 C          2.3988010742       -0.6222027647        1.5206857294
 C          3.2688263773       -1.2227976333        2.3995063857
 C          4.6607550501       -1.2193011496        2.2047611944
 C          5.1585825131       -0.5946536857        1.0878263683
 C          4.2667671630        0.0243789894        0.1862251414
 H          4.6146854073        1.6360134739       -2.7764941942
 H          2.1628894080        1.6776569894       -2.5213124922
 H          0.5364584347        1.6756707773        1.3133728528
 H         -1.8983795524        1.4249526833        1.5341042381
 H         -2.1824952020       -2.1890241248        0.1665784038
 H         -2.9843824532       -4.4230309467       -0.4639620872
 H         -5.2169098198       -4.6986364673       -1.4849186693
 H         -6.6353711703       -2.7158068871       -1.8743418179
 H         -5.8274041398       -0.4740595202       -1.2603483555
 H         -3.3689176594        2.7191132929       -0.4249161822
 H         -4.8774417866        4.3529114884        0.6243862958
 H         -6.7152266407        3.5886743095        2.0861774713
 H         -7.0177709553        1.1735750444        2.5059823595
 H         -5.5005511376       -0.4608727570        1.4766026784
 H         -2.0265506095       -0.5765068291       -2.2397834015
 H          0.4059836966       -0.2998672482       -2.4699404158
 H          1.3351893912       -0.6696584489        1.7013760419
 H          2.8710854739       -1.7262035184        3.2686257861
 H          5.3153802964       -1.7058868752        2.9111714669
