  38
        -61.59159578
 C          3.3032970047        2.6664337964        0.0196244503
 C          1.9650921263        2.9464821111        0.0155084095
 C          1.0179289524        1.8699905586        0.0073114951
 C         -0.3792082561        2.0120935288        0.0008667622
 C         -1.0767130954        3.2732555101       -0.0100716086
 C         -2.4404915997        3.3478354201       -0.0214148172
 C         -3.2690763033        2.2046129908       -0.0215205292
 C         -2.6432452631        0.9574163042       -0.0087446263
 C         -1.2389226216        0.8647779938        0.0020754267
 N         -0.8709253752       -0.4441251405        0.0146308565
 C         -1.9736051198       -1.2325583945        0.0119215628
 C         -2.0768969230       -2.6199586458        0.0217695584
 C         -3.3430692930       -3.1677790114        0.0158579276
 C         -4.4829440397       -2.3548168249        0.0003251775
 C         -4.3911647636       -0.9742585007       -0.0088491413
 C         -3.1311568242       -0.3931625111       -0.0028602885
 N          1.4891376110        0.5868887840        0.0036776267
 C          2.7672312978        0.3397274017        0.0052799542
 N          3.0701650260       -1.0259119901       -0.0028728849
 C          4.2785133201       -1.6396515000       -0.0244573777
 C          4.0426816507       -2.9903333758       -0.0293144846
 C          2.6415261268       -3.1028790759       -0.0087594063
 N          2.0727696609       -1.9190200186        0.0069774203
 C          3.7583283477        1.3357760989        0.0138160741
 H          4.0285258277        3.4674409581        0.0271655244
 H          1.6204924106        3.9669496875        0.0209563608
 H         -0.4989021932        4.1828197003       -0.0113510366
 H         -2.9112600353        4.3207802879       -0.0309694284
 H         -4.3419508120        2.2980962841       -0.0306648594
 H          0.1193147292       -0.7111590946        0.0186415008
 H         -1.1894778979       -3.2336108744        0.0337195805
 H         -3.4638925481       -4.2404419349        0.0236981714
 H         -5.4566602707       -2.8223995751       -0.0038342804
 H         -5.2805686000       -0.3624497810       -0.0203232042
 H          5.2007241283       -1.0958076408       -0.0394108322
 H          4.7635471588       -3.7815620640       -0.0476351811
 H          2.0448770981       -3.9927914673       -0.0101819275
 H          4.8093421913        1.1084518999        0.0165411732
