66
 energy: -96.388009321220 gnorm: 0.000033701103 xtb: 6.7.1 (edcfbbe)
C            1.30385001292879       -3.88252706765573        2.55653647964911
C            0.70507785541293       -2.72646859871713        3.02951035657965
C            0.72353118416290       -1.57005013558880        2.26978269409033
C            1.36112265497215       -1.55700879429328        1.03423000905303
P            1.28339839690336       -0.14312197154120       -0.10484057274293
C            3.07202417405548        0.07568202268385       -0.52988271989162
C            4.15256595093646       -0.44925147782142        0.16919230638622
C            5.44494309598751       -0.15958602092463       -0.23208159509512
C            5.67291373440675        0.65546775281336       -1.32884833873088
C            4.60135743315434        1.18235141648620       -2.03163050727489
C            3.31032797006159        0.88928789621214       -1.63428014766972
C            1.18972218420064        1.31052318861505        1.00145929360449
C            1.95333766398557        1.38939315916909        2.15964609509833
C            1.88586160210792        2.50532482529814        2.97295731033979
C            1.05969914471384        3.56173400551149        2.62321380641740
C            0.32232701563188        3.50569211873608        1.45509957105363
C            0.37703385261943        2.38686744759188        0.62642128623384
C           -0.39025209287454        2.38369410406744       -0.63128667164745
C           -0.34197006008654        3.50161759724198       -1.46157585738008
C           -1.07931817325551        3.55155787854717       -2.62997843427713
C           -1.89905782012034        2.48972786583372       -2.97840847952174
C           -1.96022352114189        1.37464215388976       -2.16343166379096
C           -1.19650336858591        1.30201872319368       -1.00490118060059
P           -1.28205980661507       -0.15022351314054        0.10390160319645
C           -3.07200723414815        0.05895027227044        0.52821809743520
C           -4.14927492515535       -0.47370954026775       -0.17006360457078
C           -5.44342646915043       -0.19112646502276        0.23054337010655
C           -5.67644131660434        0.62448026603130        1.32583347629585
C           -4.60817195893466        1.15916592517419        2.02773148333166
C           -3.31534930053025        0.87313092520267        1.63109271225987
C           -1.35146606030794       -1.56676175452481       -1.03240066335788
C           -1.92393871740969       -2.74168818607948       -0.55008839468125
C           -1.89433411272220       -3.89754406242283       -1.30708359572441
C           -1.28013194376154       -3.89518280529025       -2.54965038493249
C           -0.68838593080911       -2.73654714421169       -3.02514877072562
C           -0.71386390140217       -1.57858920067118       -2.26795498342327
C            1.94069824547652       -2.72948462952810        0.55447112909792
C            1.91808877417877       -3.88384962974053        1.31398799817406
H            1.28580529110789       -4.78413307935275        3.15179971774296
H            0.21535679548347       -2.72639685421014        3.99320372678183
H            0.24574255633005       -0.67197861479420        2.63860888389231
H            3.98755631221921       -1.08950057775564        1.02478105770881
H            6.27994963871772       -0.57189226658079        0.31705216100609
H            6.68462198715809        0.87749961272427       -1.63649251034669
H            4.77376977474742        1.81688864253151       -2.88953512006004
H            2.46445759849430        1.29317110742851       -2.17843628378840
H            2.60320817371939        0.56594867411388        2.42187013338827
H            2.47668666381656        2.55202664581107        3.87637093288605
H            0.99640405503404        4.43401665678436        3.25775203572768
H           -0.32079373345568        4.33109549777626        1.18316774229693
H            0.29620401690109        4.33118345843342       -1.19066754315723
H           -1.02101972908435        4.42327331848757       -3.26577252986299
H           -2.48982444890419        2.53159276758370       -3.88209660976518
H           -2.60513479107843        0.54697889541072       -2.42463138976905
H           -3.98029313211249       -1.11442202955486       -1.02454010362249
H           -6.27584777638002       -0.60950120364584       -0.31793813672100
H           -6.68950907591895        0.84089082334374        1.63300983243817
H           -4.78454375385048        1.79424936013875        2.88442851966209
H           -2.47199450969837        1.28310266669307        2.17460598281210
H           -2.39123098724408       -2.73944106538207        0.42690232781626
H           -2.34463209954027       -4.80332989375282       -0.92618049984983
H           -1.25666598084380       -4.79794633666602       -3.14296695642782
H           -0.19873065479751       -2.73562043175879       -3.98887558827792
H           -0.24150507294177       -0.67843454858799       -2.63872217861227
H            2.40807013846107       -2.72653136287965       -0.42247811242536
H            2.37394508464274       -4.78769290465692        0.93507903569037
