66
 energy: -96.388026976309 gnorm: 0.000045559980 xtb: 6.7.1 (edcfbbe)
C            1.72494266885896       -3.86233160319416        2.26228455593276
C            1.22877869368126       -2.70733468414466        2.84403643982575
C            1.11568755364058       -1.54501194861200        2.10152404085895
C            1.51869841627260       -1.52535079795530        0.77112343112239
P            1.24611313342385       -0.10452358099728       -0.32830612674950
C            2.93326858063807        0.11402784362718       -1.05772695963693
C            4.11686096907207       -0.42341578903650       -0.56574504154834
C            5.31970216172225       -0.13491407655459       -1.18637492911171
C            5.35543438964542        0.69198335833349       -2.29730563563656
C            4.18008744497814        1.23268152136723       -2.79332363093400
C            2.97772763463993        0.94028646141056       -2.17743998328790
C            1.34919047446364        1.34485686997963        0.78279826776139
C            2.29748993833636        1.41767176003713        1.79567814331021
C            2.36931730907545        2.52976182243715        2.61402086957949
C            1.49874879477843        3.58913336821833        2.41236847621636
C            0.57643364263192        3.54033543099258        1.38348012205402
C            0.48762704122591        2.42432574946190        0.55427292952581
C           -0.48180443245605        2.42506114865185       -0.55512109796186
C           -0.56866941547034        3.54079465436177       -1.38491433175497
C           -1.49211591998997        3.59141592262668       -2.41270964489060
C           -2.36558218658572        2.53412876183538       -2.61282377414822
C           -2.29535283842608        1.42215733921004       -1.79419957097425
C           -1.34612835165374        1.34752613089157       -0.78230629967448
P           -1.24628745592408       -0.10142871558384        0.32968559868486
C           -2.93358544093882        0.12152626546402        1.05740902647516
C           -4.11788029051982       -0.41379283372729        0.56486334925840
C           -5.32088506979257       -0.12037830466762        1.18289208000014
C           -5.35601268209456        0.70916185428524        2.29185528463527
C           -4.17986814500389        1.24732304495936        2.78873993446779
C           -2.97740269349929        0.95015275402201        2.17539391226517
C           -1.52103315389698       -1.52231204525962       -0.76912543997432
C           -1.99836144952629       -2.69264718481857       -0.18313069415665
C           -2.10895575549468       -3.85306668906743       -0.92541632733115
C           -1.73016824740445       -3.85991465683999       -2.25877915212196
C           -1.23323259310574       -2.70572711493168       -2.84147038665766
C           -1.11868309456306       -1.54308003155029       -2.09969849344318
C            1.99504719787644       -2.69655545266594        0.18602250820149
C            2.10429170509265       -3.85661656502957        0.92907422536202
H            1.80991984068738       -4.76836252839886        2.84485894618980
H            0.92200857189342       -2.71286355695777        3.88056774275395
H            0.71798966363125       -0.64759078684859        2.55671534040605
H            4.10128493202666       -1.07278266115673        0.29875637899565
H            6.23614781332139       -0.55723031433841       -0.79831402679331
H            6.29821227501015        0.91280154106649       -2.77684974777638
H            4.20238302693977        1.87712341675040       -3.66086409323832
H            2.05126204635735        1.35422887290815       -2.55848797079965
H            2.98104832583155        0.59250847081158        1.94070534608052
H            3.10265910482489        2.57107165285796        3.40642019389860
H            1.54482403412104        4.45841352817444        3.05252525949777
H           -0.10071045650535        4.36830182476414        1.22602787152285
H            0.11065516826137        4.36720644804092       -1.22865798562047
H           -1.53692541956385        4.46058148041868       -3.05311487592076
H           -3.10000793139416        2.57702735918235       -3.40414064669742
H           -2.98107205440348        0.59857173041724       -1.93802892692380
H           -4.10273150226296       -1.06522578051900       -0.29810045004827
H           -6.23793139223969       -0.54085414460173        0.79424972174389
H           -6.29889930099075        0.93400719903185        2.76930640159348
H           -4.20166596545465        1.89360056822514        3.65491994849330
H           -2.05035805877692        1.36227232903512        2.55699979717714
H           -2.28037830266172       -2.68217548225880        0.86252255200934
H           -2.48476286270928       -4.75527116340592       -0.46382519256963
H           -1.81608199817139       -4.76624558559633       -2.84074779115797
H           -0.92693993465982       -2.71217646725783       -3.87813509035426
H           -0.72029837130896       -0.64630781348989       -2.55556180745228
H            2.27741042421887       -2.68711547254096       -0.85954448970878
H            2.47952079019997       -4.75942665199983        0.46819091916236
