66
 energy: -96.296773631076 gnorm: 0.000065885113 xtb: 6.7.1 (edcfbbe)
C            1.10993404861581       -3.91875873348978        2.77294301958655
C            0.31435183531654       -2.82751465892224        3.08957600524003
C            0.38644883512296       -1.67672905458068        2.32920193327991
C            1.27906763427006       -1.59767067988812        1.26067689666831
P            1.17002562450287       -0.17893488839769        0.15631758891828
C            2.83629572045455        0.01729292435059       -0.59674767052428
C            4.00349594022792       -0.25614054481562        0.11978918315289
C            5.22899386117401        0.06451237704819       -0.42837803258451
C            5.30958658131091        0.66354084061613       -1.67832081723029
C            4.14844157450639        0.95463061300140       -2.38150941793481
C            2.91759490385403        0.64016621929888       -1.84203295001071
C            0.97411392918376        1.29638360238472        1.16334729957653
C            1.68393811417613        1.37483684922312        2.36856471499040
C            1.70760020459177        2.53140947074218        3.10687077588947
C            1.05651069437485        3.66904163429833        2.61599582943717
C            0.40710633548198        3.62535660740668        1.40473860633052
C            0.34603302161408        2.45808358032897        0.62991989892587
C           -0.35982597565631        2.45490316358265       -0.63507553077210
C           -0.42762446005053        3.62043980729027       -1.41193573850883
C           -1.07685093722463        3.65812114055865       -2.62349083800436
C           -1.72088315989324        2.51573434269295       -3.11263838128132
C           -1.69057250285890        1.36060407189126       -2.37231386813269
C           -0.98085638971659        1.28854298655219       -1.16662122652830
P           -1.16844266647469       -0.18603037547615       -0.15688929189949
C           -2.83601434297443        0.00167507534427        0.59555247928610
C           -4.00138288985587       -0.27789282904793       -0.12162938061459
C           -5.22883566353771        0.03661809095970        0.42571665691271
C           -5.31324360957917        0.63550542107827        1.67548117638278
C           -4.15403154923304        0.93259840414633        2.37934611989440
C           -2.92126694210675        0.62431837280509        1.84067599563481
C           -1.26904742632906       -1.60732509633816       -1.25875240597058
C           -2.02976468368633       -2.72380121742899       -0.91704536887252
C           -1.94678726025317       -3.87347340820554       -1.67921848520004
C           -1.08589750515590       -3.93054078129074       -2.76610769254852
C           -0.29574354126311       -2.83574060570070       -3.08404438727564
C           -0.37477902020087       -1.68379930273899       -2.32610277827923
C            2.04519838217149       -2.71084034487183        0.92026068883814
C            1.96917508807972       -3.85936885507868        1.68487846108257
H            1.05030884818221       -4.82011155822805        3.36498949128655
H           -0.36798097850120       -2.87859510751354        3.92588914267034
H           -0.23257997966537       -0.81914949031723        2.56338058479804
H            3.94585596389496       -0.71679201742689        1.09551296362935
H            6.13176618924187       -0.15262817159828        0.12507554087861
H            6.27347969927071        0.90898132950841       -2.09858082778678
H            4.20659041925729        1.42911792869009       -3.35068641076784
H            2.00683766153777        0.87340080671604       -2.37914825312024
H            2.19157124846044        0.48776933438706        2.72806869273479
H            2.22371313642910        2.56736504122992        4.05531726803243
H            1.06481255032686        4.58337915701075        3.19185367283486
H           -0.10205970591975        4.51196348997311        1.05410851677050
H            0.07616801540599        4.51065987293315       -1.06270776634959
H           -1.09041670244665        4.57139334188056       -3.20093206475865
H           -2.23678693757483        2.54695499365451       -4.06137037030946
H           -2.19263959589184        0.46984601565160       -2.73051609256965
H           -3.94076775206580       -0.73831227917491       -1.09728042994943
H           -6.13014887322656       -0.18520459474300       -0.12825852798540
H           -6.27863438606651        0.87608924013909        2.09511224749858
H           -4.21519555077716        1.40690018091366        3.34843014905056
H           -2.01205503752561        0.86224734102966        2.37833492361561
H           -2.68289706576536       -2.68227736324454       -0.05587567166522
H           -2.54755335970823       -4.73344481789904       -1.42044546558333
H           -1.02073798713414       -4.83278592558999       -3.35620661716729
H            0.38786875602915       -2.88495477633537       -3.91942185158509
H            0.24002140353875       -0.82344969259865       -2.56132065552785
H            2.69700386160082       -2.66774106796280        0.05816651129052
H            2.57413633885396       -4.71669014493419        1.42710798900817
