161
 energy: -225.037112444110 gnorm: 0.000048548247 xtb: 6.7.1 (edcfbbe)
C          -11.84467987164334        2.27608090064478        5.50300020850419
C          -12.48884691822344        1.74614743061645        4.21812374590623
C          -13.54724519302833        2.76207375229649        3.76257618893245
C          -13.16337808507819        0.40507840694131        4.54454070804417
C          -11.48398685148386        1.53789188487207        3.09205358582102
C          -10.12525842783521        1.83451115585015        3.23347947562392
C           -9.20868720584834        1.64325827001970        2.21524177956502
C           -9.66081982874699        1.12837660300369        1.01176044729337
C          -11.03279570778047        0.84493199806847        0.83338911690853
C          -11.92894716885120        1.04702253228082        1.87117375054889
C          -11.18064814588979        0.38493510609496       -0.52097670919453
C          -12.26805658032255       -0.04542850356962       -1.26466465644144
C          -12.09523107922818       -0.45578479723519       -2.58049023756068
C          -13.30977952792661       -0.90895592989055       -3.38097831397789
C          -12.95913078688331       -1.32707890428958       -4.81236140850673
C          -14.31725505855918        0.24834481885995       -3.45765007291084
C          -13.95571561535922       -2.11320811979570       -2.67935168484264
C          -10.80447678450280       -0.44090874539763       -3.11721054086931
C           -9.70112827409184       -0.01693647326734       -2.39843776315288
C           -9.89174351844126        0.41795704215175       -1.09747127404050
N           -8.97891354114812        0.86702733979666       -0.16207762079255
C           -7.60662567871376        1.05605586037143       -0.37164438433496
C           -6.67963584982340        0.54360969768445        0.53258707864133
C           -5.32937957481038        0.75094151395572        0.33574140089981
C           -4.86648993834977        1.46688755259975       -0.76752211703394
C           -3.42819548256792        1.70699644848568       -0.94916008315241
C           -2.97128809270422        2.95892524818633       -1.36442185004456
C           -1.62102178767717        3.22903049810000       -1.49685105756918
C           -0.70857289163055        2.22535930274337       -1.21284724481521
C           -1.16102703377193        0.95849834532709       -0.81390540217219
C           -2.50313644437470        0.69449280545888       -0.67873083112868
C            0.00682491350572        0.02294344665438       -0.56213599809136
C            1.18401120484936        0.94433319836474       -0.82409794604567
C            2.52383002354230        0.66261833282315       -0.70372733106593
C            3.45912076737963        1.66243621202280       -0.98584359932262
C            4.89547865561176        1.40271366306182       -0.82051599322702
C            5.36043732760830        0.67782879949094        0.27626814685525
C            6.71014051284196        0.45931845377324        0.46294755431382
C            7.63355713521941        0.95022785936603       -0.45696517261105
N            9.00462961551699        0.73725004328183       -0.26488562651657
C            9.98862014867323        1.70693999392231       -0.30529968977787
C            9.89232011471249        3.07317347079584       -0.50981060207495
C           11.05203309136100        3.82601814889789       -0.47095307835939
C           12.30866056893964        3.26458030379925       -0.22520046206487
C           13.58373565304778        4.09774462586447       -0.18626698290509
C           14.56950373915569        3.55867138099568       -1.23399516135422
C           14.20725166979017        3.99353141002510        1.21382464400156
C           13.33838154727167        5.57956023352307       -0.48766205404483
C           12.38789580967800        1.89706078526640        0.00458068403698
C           11.24233027149712        1.11736197806667       -0.03061917901885
C           10.99634140425212       -0.28347092731567        0.17897511826675
C           11.82767823689785       -1.35966842324420        0.46213013492657
C           11.29126221272658       -2.63085401596849        0.58856331421631
C           12.14106112698657       -3.85410054853096        0.90697471016788
C           13.62146746855539       -3.50910062614090        1.09763408201907
C           12.03180987165459       -4.86143462909640       -0.24751746763033
C           11.63297826158683       -4.49703910098943        2.20646343385025
C            9.91086071751763       -2.79344328642162        0.40707021675925
C            9.06098955087806       -1.74264085128824        0.12672389480859
C            9.60606873108329       -0.47135730288459        0.02963133898422
C            7.17770435077092        1.66026295508027       -1.56503749337621
C            5.82729544013668        1.88900411588000       -1.73633833347522
C            3.01410078350180        2.91967774574632       -1.39802389632209
C            1.66612110903690        3.20751417469366       -1.51545955444870
C            0.74373923377185        2.21627196158435       -1.22001941271013
C            0.00072746027597       -1.11548806908457       -1.55609226383177
C           -0.01393113904190       -0.81813505512338       -2.91058397148517
C           -0.00678890095880       -1.81612095354944       -3.86778201146470
C            0.01994268724241       -3.13974354090930       -3.46239130520032
C            0.03407925358414       -3.45528552659787       -2.11897439836255
C            0.01973531712412       -2.45175036168797       -1.14566324418026
N            0.03176357593948       -2.78406783236594        0.19944477992835
C            0.04512268860217       -4.16028003691743        0.57272407998325
C            1.25088105021353       -4.79207930083247        0.84993722668981
C            1.26051961029860       -6.12792217426107        1.21231839804913
C            0.07174916093113       -6.83429593056393        1.29624789345943
C           -1.13031973269550       -6.20416084649436        1.01842482228827
C           -1.14737089503147       -4.86795283450047        0.65790849609059
C            0.01924421166734       -1.81747393908756        1.19162175951066
C            0.00950468483255       -2.19066773005338        2.53907616931480
C           -0.00036508584751       -1.23808761036438        3.53776465704262
C           -0.00265360528237        0.10910149345634        3.21727650540319
C            0.00059605827166        0.48545767080686        1.88651799553623
C            0.00971422684165       -0.45713869476761        0.86911487240475
C           -5.80132794366524        1.96432409935908       -1.67415149032773
C           -7.15358583796995        1.76529542015826       -1.48137342854659
H          -11.38406656031342        3.24786183070628        5.33962022323239
H          -12.60928478148284        2.39264547012041        6.26890016487282
H          -11.09499165146735        1.58381917496090        5.87991543321774
H          -14.08770276274020        2.40628095369025        2.88962277744136
H          -14.26630706445569        2.93896376144235        4.56003202811525
H          -13.07413868610730        3.70854218260245        3.50717797174136
H          -13.87775395159604        0.53170251714915        5.35568439592550
H          -12.41770272490584       -0.32584978916604        4.85193530656558
H          -13.69382897326789        0.00761215683815        3.68360164440035
H           -9.75592330468408        2.23331940563839        4.16391709370863
H           -8.17057289009648        1.90253808952664        2.36124473328866
H          -12.97220029783418        0.82201656039673        1.71008777888906
H          -13.24349084208223       -0.05750219045149       -0.80281373763983
H          -12.27025864168510       -2.16892555403327       -4.81746553002977
H          -12.51802491082550       -0.50073874695211       -5.36539913259954
H          -13.86557329890189       -1.63240493907142       -5.33191223887090
H          -14.65599383857997        0.54535616579768       -2.46879387286096
H          -15.18697538122225       -0.04830640274805       -4.04068396166285
H          -13.86048735405690        1.11372674147607       -3.93446466173043
H          -14.81649963620779       -2.46109525233341       -3.24709769293522
H          -14.29019622942992       -1.85645690598208       -1.67790071830019
H          -13.24073709625502       -2.93003849807592       -2.60021880338787
H          -10.63938831547431       -0.77141662740861       -4.12948075664819
H           -8.71827430281355       -0.03689677369374       -2.84569698470852
H           -7.02460220454390       -0.02221280000577        1.38536427664082
H           -4.62188030910034        0.36591196723724        1.05575655840724
H           -3.68974025794587        3.74237005031935       -1.55727452254022
H           -1.28739293618407        4.20898609657898       -1.80526967404438
H           -2.84251625342979       -0.28636453977922       -0.37823982191044
H            2.85335878000234       -0.32260497884969       -0.40669468089767
H            4.65607822625887        0.31099865634829        1.00879620324566
H            7.05966508160991       -0.07559460139740        1.33368123054843
H            8.93879010097606        3.54906480315913       -0.68454781428595
H           10.96004193637949        4.88711216305845       -0.63487175742246
H           15.48110452162296        4.15306400030612       -1.23249030130844
H           14.12662003715682        3.60781801950041       -2.22707717994329
H           14.83784059462788        2.52531847942422       -1.03240384659753
H           15.11769700352967        4.58752832332905        1.26472314881208
H           14.45689398062660        2.96505162756038        1.46017347971423
H           13.51097311811020        4.36352852631369        1.96425888341367
H           14.28543857523690        6.11539957600309       -0.45979710908755
H           12.67903795372174        6.02722208573116        0.25269031886115
H           12.90698941297327        5.71178698747949       -1.47747282638311
H           13.33413648354984        1.42368163286224        0.21761614346417
H           12.88396563926435       -1.17932422820065        0.57330484490567
H           14.04429906624642       -3.08236101767033        0.19079506562799
H           14.17739722505341       -4.41487133227974        1.33259147093316
H           13.75703562816200       -2.80901682375336        1.91910995994078
H           11.00546767250845       -5.18639928440574       -0.39495315815034
H           12.64028858339187       -5.73897889326233       -0.03773345756208
H           12.38282118257082       -4.41150180935468       -1.17437550709068
H           10.60541188911456       -4.83580798534953        2.10706238301927
H           11.67787275178230       -3.77914627287191        3.02341868378457
H           12.25009577416044       -5.35489415796610        2.46633263267974
H            9.48010274448153       -3.78046702650633        0.48379809142235
H            8.00505507732963       -1.91415511210377       -0.02165813843516
H            7.88762190976781        2.02083099682195       -2.29461517167129
H            5.48669797937489        2.42937111298916       -2.60740828169279
H            3.74067569055293        3.69308855493504       -1.60061351581460
H            1.34205257894486        4.19115760601802       -1.82232105114180
H           -0.02956215070929        0.21851115916204       -3.21546757586641
H           -0.01878580221398       -1.56265836600582       -4.91704723145542
H            0.03086576125768       -3.93415514903771       -4.19438657441905
H            0.05812076567341       -4.49066347101355       -1.81514696876161
H            2.17219840048804       -4.23229797465685        0.78096088908061
H            2.19854319845139       -6.61754654522640        1.42811753788509
H            0.08201541490392       -7.87655915198172        1.57824295016491
H           -2.05799938003850       -6.75321261613916        1.08311029871291
H           -2.07913748661018       -4.36727381551795        0.43849144100695
H            0.00838163426491       -3.23784177748497        2.80072243678255
H           -0.00690091150944       -1.55228532238261        4.57139192644915
H           -0.00902186993667        0.85880963762374        3.99399953955614
H           -0.00470698469840        1.53387774369752        1.62334951766670
H           -5.46344098058220        2.50644176363331       -2.54518704390561
H           -7.86897151977747        2.17291128336219       -2.18031217754675
