161
 energy: -224.953428986386 gnorm: 0.000049061358 xtb: 6.7.1 (edcfbbe)
C          -13.06861911040448        0.27912717064275        5.00823955734760
C          -12.93523653548773       -0.87142487534954        3.99920491178279
C          -14.32659107038765       -1.17116338178453        3.43252393383594
C          -12.43123371578357       -2.13394939890891        4.71485205148887
C          -11.93607190999220       -0.47781265052026        2.92033463091425
C          -10.61521819238508       -0.19013999162123        3.29191707168746
C           -9.63913334983028        0.16311329091636        2.38228428637827
C           -9.98920538180940        0.22615080761863        1.04121671683906
C          -11.32046187201702       -0.02635934973491        0.64405446047198
C          -12.28144000243689       -0.38101625337992        1.58028303330686
C          -11.36642642562705        0.18201015179725       -0.77863150117236
C          -12.38053399801672        0.07046043021760       -1.71947776743555
C          -12.10979482948980        0.31576040464245       -3.05771599868917
C          -13.17273817761254        0.21401618430003       -4.14249599733740
C          -13.28537375883262        1.56287273653203       -4.86883217414205
C          -14.55419852055203       -0.13932611898939       -3.58260851625394
C          -12.76751531901948       -0.88150928394044       -5.14036146507433
C          -10.79884015953365        0.65285554078031       -3.42279161578882
C           -9.77173118447652        0.77186765079210       -2.50858236523383
C          -10.06153420314897        0.55382604983009       -1.16934896607481
N           -9.23553133651054        0.57663653059534       -0.06211421086683
C           -7.87645987083680        0.89703097271161       -0.06068759684391
C           -6.95033811347965        0.08177024279683        0.59932932992205
C           -5.61386595809353        0.39210867106521        0.58678170677409
C           -5.12369793174553        1.54081655724889       -0.07207221511617
C           -3.72235397486462        1.85976076832102       -0.08870157901421
C           -3.26984967756200        3.19394547589020       -0.27473906317287
C           -1.94555290343689        3.52544909100721       -0.30410236879466
C           -0.97284109713083        2.51259566453974       -0.16429967574038
C           -1.41626354027693        1.16644285186923        0.02472265469723
C           -2.73609563768819        0.84775747552097        0.07156645179080
C           -0.22711198526182        0.23632746391493        0.13237027631778
C            0.93219473545748        1.21795650967937        0.00240777867206
C            2.26114791330896        0.94911751357829        0.03720415343782
C            3.20722562622308        1.99570052605351       -0.13445444764340
C            4.61518054987345        1.71641399720551       -0.11957698537309
C            5.13327370392729        0.59017292219505        0.55874598063376
C            6.47167259801439        0.29329954307676        0.54897312337222
C            7.37667614343274        1.10633214138806       -0.14387288097182
N            8.73470634215525        0.78870870553828       -0.17300411217923
C            9.78244432492566        1.66033717193352        0.05309611821874
C            9.77251064747608        3.00062765528258        0.41158775687443
C           10.98542213433071        3.62911905894842        0.60863415700887
C           12.21626466198200        2.97169768865707        0.47268771850590
C           13.49993742089641        3.75585134074856        0.70616681220420
C           14.75637413580136        2.90282731770531        0.50459340402577
C           13.51022040957313        4.28677755990942        2.14780673340400
C           13.56073348768911        4.93138083134753       -0.28098860686348
C           12.21243342951632        1.62397504454269        0.14409778749357
C           11.00743281138073        0.96699068103589       -0.06065240705608
C           10.67508973271581       -0.39618407088303       -0.37835392545815
C           11.44361270052118       -1.52444454972733       -0.62843140356961
C           10.82436440864441       -2.72481380655804       -0.94455537964177
C           11.60396830528333       -4.00182896373438       -1.22523573902903
C           11.17959332349161       -5.08310967480831       -0.21989415977806
C           13.11829214150706       -3.80669269221789       -1.10170398061497
C           11.30006513215690       -4.47423755055739       -2.65519723639712
C            9.42488217179056       -2.75406417270177       -1.02159076148681
C            8.63637539581993       -1.64762423350863       -0.77900508918627
C            9.26579011619993       -0.46013851931431       -0.43412783205192
C            6.88886659313838        2.23883464860493       -0.80690907233188
C            5.54964450983071        2.53597112311305       -0.79011238813822
C            2.70248346243202        3.30964881223986       -0.33043570329396
C            1.36602141690372        3.58951607535925       -0.34352405551383
C            0.43293156761719        2.54253385177727       -0.17935704394869
C           -0.15372442129546       -0.75792473085109       -0.99890612197785
C           -0.63628653004647       -0.43114843217490       -2.25591430342094
C           -0.48953734195434       -1.29592948198579       -3.32674693053382
C            0.15859996192811       -2.50586120130400       -3.14199028050335
C            0.64151577445326       -2.85215562708946       -1.89609350773147
C            0.49083378602856       -1.98676396359361       -0.80960626805965
N            0.94982200515139       -2.35366151798856        0.44655627761840
C            1.76765620405477       -3.51367613637892        0.56421718693266
C            3.12268153196295       -3.41691450546311        0.27448122792758
C            3.93274665098757       -4.53382498537465        0.38328159828612
C            3.39414814574866       -5.74712320047218        0.77850979520707
C            2.04124359239993       -5.84532282866543        1.06127561738481
C            1.22522251504009       -4.73270040880481        0.95430446680959
C            0.53715919861034       -1.67874206971925        1.58523527080131
C            0.77276819966957       -2.20870639467347        2.85656356648962
C            0.32926064328595       -1.55090712680137        3.98628254568232
C           -0.35609261080081       -0.35265932631541        3.87298791984467
C           -0.56384445829299        0.19515364952999        2.61917959778383
C           -0.12090698372292       -0.44572765214544        1.47322636121256
C           -6.07821834624184        2.35497192078676       -0.71994760803047
C           -7.41352074402421        2.04012484900975       -0.72185929890122
H          -13.40765933975867        1.18313918355319        4.50579532376336
H          -13.79254922713234        0.01950834966034        5.77805148011961
H          -12.12011385340769        0.49477157045354        5.49247016745664
H          -14.29021903101550       -1.99297903027904        2.72084021774884
H          -14.99344052014663       -1.45790402412498        4.24343094790986
H          -14.74877049746208       -0.29465255046067        2.94612816137504
H          -13.14843676579651       -2.44720291364716        5.47089323871574
H          -11.47696180179344       -1.95971440862339        5.20423586431941
H          -12.30506634707266       -2.94564033708052        4.00078383146509
H          -10.33619345323286       -0.23924912553153        4.33343744685281
H           -8.63790513720842        0.39490941789092        2.71296219326792
H          -13.28649938658641       -0.56991714737893        1.24224710941415
H          -13.36484136903339       -0.21301316836385       -1.38637707408855
H          -12.34951357825936        1.83663351665194       -5.34809358533650
H          -13.55006910994328        2.34879695848146       -4.16390803326486
H          -14.05663782607096        1.51176582688167       -5.63475181769684
H          -14.54154964879241       -1.10951597619768       -3.09105408313190
H          -15.27369448982754       -0.18642514273976       -4.39783166709588
H          -14.89476588366680        0.61532542448496       -2.87706858343365
H          -13.52877767520491       -0.98661457657903       -5.91075428079359
H          -12.66018711844239       -1.83570245894425       -4.62782512267680
H          -11.82335491009701       -0.64781964271383       -5.62477501245315
H          -10.56702027686707        0.82487121055082       -4.46281557449439
H           -8.77161991909384        1.01450060908105       -2.83488824919374
H           -7.29500818631817       -0.81060584041682        1.10148492220717
H           -4.92697350737579       -0.25007136215477        1.11668001389398
H           -4.00357297816625        3.98265612632869       -0.35420214623347
H           -1.63739532531631        4.55404418229248       -0.42622977718562
H           -3.03534723469914       -0.18421705311542        0.18207743409349
H            2.60437190647640       -0.06772780454875        0.15062385684475
H            4.46835641693843       -0.02829793140796        1.14267122527810
H            6.84376374078180       -0.55324935355773        1.10767807039678
H            8.84687259450984        3.53911000989699        0.54853106670569
H           10.97080102342602        4.67230747951908        0.88529052941950
H           15.64017393656924        3.51524564092204        0.67289889910839
H           14.80632793691216        2.51328871847116       -0.50981103697027
H           14.78451744506318        2.07406327019556        1.20846000694513
H           14.43304954354428        4.83046071862086        2.33976294186101
H           13.44248091360400        3.46073946424057        2.85333321094718
H           12.67590353509342        4.95866888307833        2.32992637599896
H           14.48423820086330        5.48962191630762       -0.14102170597767
H           12.72713530218818        5.61378193629226       -0.13960722775152
H           13.53102116354982        4.56453763034824       -1.30531512979250
H           13.12815135863993        1.06512274884717        0.04782929104146
H           12.51612385403944       -1.44024159236335       -0.57691695551924
H           11.37908736549405       -4.75055717310081        0.79708857053905
H           11.73772529587586       -5.99991780208081       -0.39879281207288
H           10.12004944900340       -5.30876781489818       -0.30269994616621
H           13.47849914478477       -3.07362317768004       -1.82006249256117
H           13.62232147160947       -4.74980549438341       -1.30415779062182
H           13.39184071774452       -3.48883037264895       -0.09802317116424
H           11.56658306152524       -3.69949968545389       -3.37174922897382
H           10.24639636045880       -4.70687203860799       -2.78204310497518
H           11.87557518838645       -5.36900137637287       -2.88383495297264
H            8.92961871671838       -3.67536217588805       -1.28790027826885
H            7.56257439607649       -1.70706376487194       -0.87280803332126
H            7.57405278911134        2.85857818473504       -1.36683281091759
H            5.19985832443617        3.39117681667084       -1.34798611306986
H            3.40603185535360        4.12331091702950       -0.43132928327382
H            1.01757530830373        4.60450554344464       -0.47147651566350
H           -1.12784828770490        0.52060422969489       -2.39598432402131
H           -0.87196559101606       -1.02228522757391       -4.29839269829911
H            0.28585492246912       -3.18784093745448       -3.96974097511088
H            1.13617324693815       -3.80153547058622       -1.75806940124516
H            3.53318412343850       -2.46918212825810       -0.04191219435804
H            4.98618406049594       -4.45398147797005        0.15996136075511
H            4.02753701795757       -6.61734696588609        0.86360524406598
H            1.61788253181898       -6.79150414509981        1.36400362172862
H            0.16838742716088       -4.80021110127371        1.16760388004263
H            1.30882145985535       -3.13960705340793        2.95844809626943
H            0.52093627453068       -1.97839149094793        4.95945422451184
H           -0.70958417333142        0.16195107757587        4.75362293180560
H           -1.06886927917960        1.14541961716914        2.52311964173585
H           -5.75305099230292        3.23543309490531       -1.25279718096047
H           -8.12254066661526        2.68706702057113       -1.21778978939223
