  161
       -224.95233770
 C        -13.4398458620        1.5786829499        4.5461907418
 C        -13.2251770817        0.1948193144        3.9170556051
 C        -14.5666554413       -0.2847932120        3.3556810151
 C        -12.7783744575       -0.8027323876        4.9950863603
 C        -12.1464864516        0.2943872653        2.8480808744
 C        -10.8605423880        0.7085036426        3.2213398337
 C         -9.8192220261        0.8242532272        2.3234361237
 C        -10.0654585707        0.5075454624        0.9962827576
 C        -11.3575977739        0.1129182414        0.5896373285
 C        -12.3868864610        0.0042322530        1.5155826182
 C        -11.2933611287       -0.0893725582       -0.8311406236
 C        -12.2288888445       -0.4966689221       -1.7734677991
 C        -11.8556932749       -0.6275262876       -3.1005278373
 C        -12.8263247243       -1.0664561977       -4.1873627877
 C        -12.9063711699        0.0244862110       -5.2645891327
 C        -14.2402197165       -1.3066773529       -3.6509950888
 C        -12.3242007586       -2.3765242340       -4.8107493825
 C        -10.5258530875       -0.3580117308       -3.4516635146
 C         -9.5760891923        0.0484989521       -2.5372664775
 C         -9.9677497476        0.2013777393       -1.2160776819
 N         -9.2325843487        0.5606018294       -0.1036010547
 C         -7.8784635068        0.9115220121       -0.0989199891
 C         -6.9981967508        0.3196912808        0.8034015678
 C         -5.6609402268        0.6597040002        0.7928528997
 C         -5.1661437277        1.5950400971       -0.1144575165
 C         -3.7394810565        1.9424033454       -0.1318971276
 C         -3.3351379793        3.2667735411       -0.3063941403
 C         -1.9970791015        3.6165394192       -0.3324958364
 C         -1.0432137633        2.6219451737       -0.1870980599
 C         -1.4422433937        1.2869866777       -0.0094732184
 C         -2.7737011455        0.9442259858        0.0213186348
 C         -0.2440508794        0.3795988875        0.1194395908
 C          0.8958281348        1.3775408046        0.0057554939
 C          2.2427791165        1.1245310424        0.0596871384
 C          3.1439669475        2.1804160210       -0.0901742947
 C          4.5806641865        1.8838187598       -0.0531535641
 C          5.0791660698        0.9618857937        0.8671920296
 C          6.4142131042        0.6182687343        0.8750239490
 C          7.2863611500        1.1748596121       -0.0580695999
 N          8.6277840433        0.7833860719       -0.0825020357
 C          9.7247076048        1.6196346041       -0.1540424950
 C          9.7991826818        3.0022518173       -0.1591329042
 C         11.0491132930        3.5913821850       -0.2129225735
 C         12.2319713972        2.8480533758       -0.2525007071
 C         13.6053715630        3.5008792011       -0.3238792908
 C         14.3219937557        3.0190419492       -1.5934471769
 C         14.4172983802        3.0978466606        0.9152548119
 C         13.5376553281        5.0297903954       -0.3702461755
 C         12.1454743511        1.4627837594       -0.2148750980
 C         10.9060618156        0.8457003437       -0.1613421979
 C         10.4929730537       -0.5291252282       -0.0937099951
 C         11.1926129110       -1.7284938112       -0.0819274881
 C         10.5016894669       -2.9277817782       -0.0310850584
 C         11.2019454113       -4.2785551806       -0.0003662380
 C         10.8151148217       -5.0140023868        1.2904487685
 C         12.7273034271       -4.1508356827       -0.0344230228
 C         10.7674142137       -5.1037742805       -1.2195495092
 C          9.1010075979       -2.8921155824       -0.0144205015
 C          8.3806022572       -1.7154012868       -0.0269030883
 C          9.0833736238       -0.5201848052       -0.0451542561
 C          6.8010631475        2.1098092464       -0.9693599448
 C          5.4672834091        2.4652629858       -0.9566731954
 C          2.6570643257        3.4722502909       -0.2874127140
 C          1.2974359185        3.7311266931       -0.3274325282
 C          0.4081478923        2.6774883516       -0.1814873871
 C         -0.1215458523       -0.6178779399       -1.0078892224
 C         -0.6681162599       -0.3608330001       -2.2534835056
 C         -0.4596482512       -1.2240386215       -3.3153585229
 C          0.3136377649       -2.3563773934       -3.1305549591
 C          0.8576477153       -2.6337887440       -1.8919100565
 C          0.6464014092       -1.7713600718       -0.8156882437
 N          1.1660631517       -2.0663240914        0.4376677714
 C          2.1143481420       -3.1178521006        0.5539503347
 C          3.4430499324       -2.8689630544        0.2316242991
 C          4.3819882022       -3.8793479872        0.3404051070
 C          4.0012509296       -5.1393418470        0.7699469071
 C          2.6758072310       -5.3918323975        1.0836978259
 C          1.7315082683       -4.3869548607        0.9740343590
 C          0.6373711238       -1.4702348092        1.5749572882
 C          0.8791118626       -1.9939547244        2.8454502991
 C          0.3162468099       -1.4131011376        3.9652036833
 C         -0.4982042132       -0.3018608541        3.8418669380
 C         -0.7103954303        0.2477215312        2.5892039237
 C         -0.1452111348       -0.3142459763        1.4573855903
 C         -6.0558308853        2.1863392895       -1.0095208492
 C         -7.3945623394        1.8527572449       -1.0040660447
 H        -13.7389516574        2.2948139966        3.7835994641
 H        -14.2217457947        1.5306704725        5.3013010106
 H        -12.5325226675        1.9444213405        5.0185265402
 H        -14.4729164703       -1.2726842586        2.9107356431
 H        -15.2955570595       -0.3464565666        4.1613319757
 H        -14.9489327079        0.4083900244        2.6101026699
 H        -13.5479142486       -0.9001560387        5.7581007664
 H        -11.8602047127       -0.4807139093        5.4780761200
 H        -12.6052030640       -1.7812510782        4.5518742079
 H        -10.6632334343        0.9547722921        4.2535598873
 H         -8.8473990152        1.1638151374        2.6494898077
 H        -13.3600700813       -0.3013231803        1.1699987514
 H        -13.2323434528       -0.7087399571       -1.4447954452
 H        -11.9391300036        0.1973853484       -5.7278198931
 H        -13.2460595879        0.9604120965       -4.8257604604
 H        -13.6087029463       -0.2673811200       -6.0426807786
 H        -14.2473116584       -2.1016979595       -2.9090695602
 H        -14.8923501078       -1.6054728108       -4.4692798635
 H        -14.6489821447       -0.4011944725       -3.2086895083
 H        -13.0163310943       -2.7168029416       -5.5782290280
 H        -12.2463399684       -3.1486810823       -4.0481532232
 H        -11.3462980449       -2.2494789620       -5.2664749666
 H        -10.2162501090       -0.4740298209       -4.4791256762
 H         -8.5570228166        0.2274374958       -2.8461894559
 H         -7.3675542970       -0.4184988787        1.4996227729
 H         -4.9896276752        0.2017298488        1.5045373828
 H         -4.0874074520        4.0363327260       -0.4016431684
 H         -1.7040974101        4.6477704864       -0.4625736503
 H         -3.0704208807       -0.0878588203        0.1380876913
 H          2.6093085623        0.1201309427        0.1932710871
 H          4.4144695646        0.5293863846        1.6010890617
 H          6.7935720189       -0.0758271562        1.6098418798
 H          8.9104004547        3.6132813184       -0.1098258381
 H         11.0901500069        4.6678925092       -0.2198706948
 H         15.3017749183        3.4855539371       -1.6720595730
 H         13.7416383957        3.2833367153       -2.4750795526
 H         14.4579479688        1.9413198208       -1.5868206626
 H         15.3996747594        3.5648115808        0.8891961560
 H         14.5533601372        2.0213106449        0.9664250969
 H         13.9055490375        3.4193502480        1.8200247708
 H         14.5460303889        5.4344367801       -0.4308693262
 H         13.0701997977        5.4290872070        0.5267951180
 H         12.9863618841        5.3711234726       -1.2433295660
 H         13.0332593259        0.8497790147       -0.2225309694
 H         12.2685240142       -1.6975109607       -0.1165531812
 H         11.1084124017       -4.4273277387        2.1586132359
 H         11.3183307550       -5.9774541473        1.3384034617
 H          9.7438090764       -5.1863599928        1.3427497282
 H         13.0578947411       -3.6575952993       -0.9453497280
 H         13.1752448936       -5.1421206399       -0.0081191495
 H         13.0925412692       -3.5947206204        0.8257830840
 H         11.0153091334       -4.5751587343       -2.1376697264
 H          9.6970762559       -5.2897752768       -1.2126271759
 H         11.2793881878       -6.0638841998       -1.2238597222
 H          8.5500438401       -3.8202743503        0.0055621571
 H          7.3009976023       -1.7311710321       -0.0340596434
 H          7.4697033998        2.5333994864       -1.7036345153
 H          5.0974673233        3.1730951433       -1.6838555120
 H          3.3575948209        4.2886386758       -0.3886805542
 H          0.9393716853        4.7400043760       -0.4704575580
 H         -1.2548883432        0.5345615671       -2.3959459371
 H         -0.8891765805       -1.0062799574       -4.2809845531
 H          0.4923692288       -3.0336648586       -3.9523078706
 H          1.4498077378       -3.5259204207       -1.7533463098
 H          3.7367109711       -1.8868609133       -0.1098721840
 H          5.4137915287       -3.6804448467        0.0909103206
 H          4.7355582156       -5.9258716585        0.8573134892
 H          2.3749303406       -6.3757563442        1.4111321074
 H          0.6940281855       -4.5777368762        1.2074449420
 H          1.5172513736       -2.8568029255        2.9584997412
 H          0.5172984463       -1.8354706164        4.9384810429
 H         -0.9453885211        0.1495035812        4.7140097556
 H         -1.3110127431        1.1397129162        2.4883982201
 H         -5.6902656973        2.9048504059       -1.7284136120
 H         -8.0771741955        2.3261277478       -1.6940019145
