  75
  -117.638634572500       0.238792357926665      !
 N         -7.4768892222        2.8240034246        2.0222215776
 C         -6.4002899486        2.7487521930        1.6305461502
 C         -5.0789756075        2.6558151559        1.1503197823
 C         -4.1606222001        1.8101499902        1.7783696634
 C         -2.8717741602        1.7209178395        1.3068797752
 C         -2.4643958939        2.4639666659        0.1921837030
 N         -1.1698309071        2.3533610969       -0.2871389739
 C         -0.5232441665        3.4428481309       -0.8951350651
 C          0.2794319483        3.2366725422       -2.0153037215
 C          0.9452624013        4.2983249094       -2.5970527370
 C          0.8108557814        5.5759570862       -2.0790211796
 C          0.0051274986        5.7862535244       -0.9720803297
 C         -0.6560030472        4.7285980207       -0.3767475257
 C         -0.4687530737        1.1457003679       -0.1676554730
 C         -1.1104123191       -0.0652479948       -0.4084070829
 C         -0.4078967370       -1.2589485614       -0.2904353101
 N         -1.0599811706       -2.4729088383       -0.5217406716
 C         -0.5940099376       -3.5083795946       -1.3115252942
 C          0.5505149462       -3.5832284889       -2.0922521727
 C          0.7637517901       -4.7402405215       -2.8175103799
 C         -0.1396960461       -5.7994757821       -2.7810240125
 C         -1.2947967417       -5.7197229038       -2.0293272033
 C         -1.5307031459       -4.5665672344       -1.2928413146
 C         -2.6116063106       -4.1425135451       -0.4472147768
 C         -3.7942732714       -4.7448512466       -0.0392594575
 C         -4.6304221011       -4.0518278963        0.8130653082
 C         -4.2904566789       -2.7811619815        1.2703884563
 C         -3.1174100222       -2.1634258441        0.8803386497
 C         -2.2850438201       -2.8432927102        0.0029849619
 C          0.9453278379       -1.2440862641        0.0338566654
 C          1.5897335388       -0.0308665612        0.2537366058
 N          2.9499825686       -0.0036942798        0.5715202478
 C          3.8930473684        0.8263910860       -0.0069134654
 C          3.7505564096        1.7548728620       -1.0281298510
 C          4.8777217700        2.4396439920       -1.4405646898
 C          6.1237462911        2.2052730168       -0.8642949783
 C          6.2766746063        1.2648917751        0.1348292027
 C          5.1578353783        0.5655535122        0.5672903123
 C          4.9580674924       -0.4658052353        1.5470565863
 C          5.8066808609       -1.1121901913        2.4358121702
 C          5.2754258262       -2.0613577078        3.2858393015
 C          3.9142641550       -2.3555274848        3.2678788489
 C          3.0504729001       -1.7255009812        2.3920596621
 C          3.5827748335       -0.7903036198        1.5164060861
 C          0.8800795839        1.1612097966        0.1713190221
 C         -3.3870886002        3.3159301697       -0.4257756638
 C         -4.6758886058        3.4119487133        0.0460642930
 H         -4.4668188770        1.2373200891        2.6412853447
 H         -2.1552907016        1.0876972894        1.8081735158
 H          0.3698841320        2.2410976844       -2.4255705798
 H          1.5658269433        4.1273337326       -3.4640815135
 H          1.3304015021        6.4036705635       -2.5362903273
 H         -0.1025402732        6.7789072675       -0.5614863439
 H         -1.2724860719        4.8901848644        0.4956017283
 H         -2.1466433879       -0.0770864781       -0.7069722781
 H          1.2490311330       -2.7622797967       -2.1482589374
 H          1.6499056316       -4.8220739668       -3.4292084890
 H          0.0649303048       -6.6879837814       -3.3590166214
 H         -2.0061255543       -6.5313704496       -2.0153172079
 H         -4.0485608589       -5.7361145185       -0.3822508044
 H         -5.5571257604       -4.4993970718        1.1389096791
 H         -4.9568610464       -2.2669089491        1.9470654745
 H         -2.8609895760       -1.1864021982        1.2578779140
 H          1.4926308293       -2.1690249792        0.1115314265
 H          2.7957103312        1.9377824624       -1.4958520653
 H          4.7887736657        3.1719155378       -2.2293626095
 H          6.9799856677        2.7631917774       -1.2123982816
 H          7.2443507632        1.0707642028        0.5718110547
 H          6.8581519377       -0.8700657822        2.4610962601
 H          5.9177119103       -2.5778368242        3.9830954626
 H          3.5228719021       -3.0896453091        3.9564123113
 H          1.9942561527       -1.9476591139        2.4049283062
 H          1.3710712065        2.0974634063        0.3840474089
 H         -3.0825566413        3.8921650566       -1.2864408048
 H         -5.3863408244        4.0638197262       -0.4401634788
  75
  -117.638095468600       0.134978757340602      !
 N         -7.6304373838        3.2176368519        1.0534593573
 C         -6.5232088213        3.0595881189        0.7939503988
 C         -5.1645101241        2.8689654131        0.4736953547
 C         -4.3829134652        1.9790895676        1.2154299322
 C         -3.0553370918        1.7984182792        0.9036409800
 C         -2.4697915768        2.4971747929       -0.1593081567
 N         -1.1341257365        2.3181222766       -0.4739310129
 C         -0.3885093813        3.3538336713       -1.0698784747
 C          0.4695447041        3.0668553814       -2.1291361902
 C          1.2298484509        4.0708927623       -2.6980814890
 C          1.1367536116        5.3696536533       -2.2255279430
 C          0.2768786943        5.6601527245       -1.1789574859
 C         -0.4807324415        4.6604670577       -0.5980630549
 C         -0.4732847104        1.1104952404       -0.2156714172
 C         -1.1072351902       -0.1103794036       -0.4262067426
 C         -0.4181754308       -1.2953895549       -0.1973866536
 N         -1.0548113402       -2.5191695665       -0.4320388410
 C         -1.7325584809       -2.8678984753       -1.5847011252
 C         -1.9136000171       -2.1487336925       -2.7570949967
 C         -2.6197785195       -2.7504089033       -3.7813224461
 C         -3.1292566779       -4.0404615731       -3.6536195996
 C         -2.9312678574       -4.7704294512       -2.4987156873
 C         -2.2250633234       -4.1865732377       -1.4553555099
 C         -1.8272868964       -4.6460250496       -0.1537843289
 C         -2.0292550103       -5.8286860636        0.5453631496
 C         -1.5224975344       -5.9359378050        1.8251998078
 C         -0.8378315395       -4.8762822434        2.4155791776
 C         -0.6255561634       -3.6904820588        1.7390623228
 C         -1.1060941793       -3.5868363342        0.4424496333
 C          0.9075510584       -1.2704050440        0.2237663655
 C          1.5382617793       -0.0489767172        0.4403776182
 N          2.8763838375        0.0006386721        0.8391488594
 C          3.8457921391        0.8183720190        0.2840971875
 C          3.7581630187        1.7049749552       -0.7796901130
 C          4.9015491425        2.3873938089       -1.1495024037
 C          6.1127481977        2.1904573809       -0.4911044251
 C          6.2138876102        1.2882894038        0.5488484151
 C          5.0773709196        0.5926148483        0.9393286400
 C          4.8316605493       -0.4072199943        1.9407134866
 C          5.6361706070       -1.0160575165        2.8945467698
 C          5.0689736377       -1.9455873031        3.7431476277
 C          3.7136533035       -2.2545812716        3.6602214455
 C          2.8944780502       -1.6593068122        2.7200115617
 C          3.4631381459       -0.7468402434        1.8439874942
 C          0.8419651566        1.1369442756        0.2376104039
 C         -3.2595783211        3.3870813910       -0.8980843641
 C         -4.5865243675        3.5722164081       -0.5869192244
 H         -4.8252453678        1.4416728120        2.0411536684
 H         -2.4530664502        1.1221040847        1.4909804895
 H          0.5298542220        2.0542012509       -2.5022291912
 H          1.8922335262        3.8379849900       -3.5185393706
 H          1.7308912219        6.1521631268       -2.6715302163
 H          0.2019151703        6.6698807155       -0.8042562170
 H         -1.1424189515        4.8828482205        0.2265024600
 H         -2.1311579556       -0.1410367847       -0.7635673764
 H         -1.5077245721       -1.1551680529       -2.8745322676
 H         -2.7771120034       -2.2088582051       -4.7023311304
 H         -3.6782797030       -4.4743464720       -4.4756724025
 H         -3.3118387034       -5.7761392308       -2.4050749333
 H         -2.5771090110       -6.6424317163        0.0951041147
 H         -1.6667937421       -6.8476083694        2.3850589147
 H         -0.4696160403       -4.9812786526        3.4253524838
 H         -0.1165408092       -2.8657016298        2.2134825567
 H          1.4516854033       -2.1933869398        0.3431143710
 H          2.8336241258        1.8580513247       -1.3136576643
 H          4.8526948748        3.0876250204       -1.9701954566
 H          6.9829506253        2.7454033953       -0.8077732521
 H          7.1552881561        1.1204823655        1.0494977464
 H          6.6822395534       -0.7607068575        2.9695888797
 H          5.6772472150       -2.4338101997        4.4894774894
 H          3.2913682021       -2.9722118455        4.3478721421
 H          1.8420762806       -1.8915128576        2.6837075122
 H          1.3200373104        2.0821412831        0.4396876046
 H         -2.8207923506        3.9248007109       -1.7249814473
 H         -5.1903285527        4.2567658068       -1.1638066441
  75
  -117.638092716600       0.134586250452196      !
 N         -7.5060818422        3.3730272412        1.4333075392
 C         -6.4250583110        3.1845096580        1.0956266665
 C         -5.0981843793        2.9555420222        0.6814879060
 C         -4.2841914411        2.0645907063        1.3862125502
 C         -2.9850202713        1.8514708108        0.9879837945
 C         -2.4600433065        2.5191951610       -0.1256895758
 N         -1.1492664776        2.3122478277       -0.5150385307
 C         -0.4160129504        3.3081529418       -1.1856385172
 C          0.4242269331        2.9525303521       -2.2390261871
 C          1.1749619906        3.9159368933       -2.8851490855
 C          1.0905321017        5.2429890172       -2.4974635000
 C          0.2515187127        5.6011824596       -1.4549935008
 C         -0.4951732782        4.6427218379       -0.7959927864
 C         -0.4896483846        1.1049991170       -0.2392360554
 C         -1.1235407368       -0.1164105478       -0.4427421308
 C         -0.4318602595       -1.3005667429       -0.2127223265
 N         -1.0567056243       -2.5253938544       -0.4688799609
 C         -1.7215582353       -2.8586011803       -1.6347319381
 C         -1.9111674140       -2.1150342814       -2.7904592773
 C         -2.5973951135       -2.7061265826       -3.8342952966
 C         -3.0796074861       -4.0094853978       -3.7424291521
 C         -2.8714649385       -4.7638144735       -2.6051702002
 C         -2.1840830728       -4.1910366881       -1.5433108407
 C         -1.7777977560       -4.6779322545       -0.2544871272
 C         -1.9500816273       -5.8865335055        0.4070422847
 C         -1.4377172557       -6.0222242470        1.6818952870
 C         -0.7782420154       -4.9651530940        2.3043879566
 C         -0.5974173550       -3.7532851071        1.6658929707
 C         -1.0821803941       -3.6201301542        0.3735683981
 C          0.8892029652       -1.2695477710        0.2232276567
 C          1.5147706821       -0.0462908330        0.4441593083
 N          2.8445020412        0.0055430275        0.8691746786
 C          3.8291054963        0.8121333025        0.3257212562
 C          3.7690300634        1.6824228374       -0.7533108218
 C          4.9226762147        2.3574251417       -1.1042737188
 C          6.1163851000        2.1685637249       -0.4124446887
 C          6.1897762129        1.2833218914        0.6442394491
 C          5.0425957909        0.5956325005        1.0169920214
 C          4.7678740779       -0.3838024562        2.0311757487
 C          5.5426799357       -0.9735496017        3.0209619095
 C          4.9477046041       -1.8803717353        3.8751577713
 C          3.5938021155       -2.1861025027        3.7624912268
 C          2.8041491844       -1.6106777715        2.7855963105
 C          3.4015455797       -0.7217957163        1.9047377470
 C          0.8222691300        1.1378721920        0.2209871447
 C         -3.2849840878        3.4027753958       -0.8327511068
 C         -4.5836094738        3.6204740896       -0.4349938764
 H         -4.6780900650        1.5539015575        2.2524343460
 H         -2.3559283566        1.1753397808        1.5466830785
 H          0.4792232675        1.9181181924       -2.5473696746
 H          1.8226132428        3.6285576875       -3.7000992135
 H          1.6754653941        5.9941540897       -3.0051385624
 H          0.1843035319        6.6329934551       -1.1445044935
 H         -1.1378050647        4.9203792420        0.0267621339
 H         -2.1479049729       -0.1466094048       -0.7790131244
 H         -1.5253284737       -1.1109386615       -2.8825109706
 H         -2.7601774907       -2.1451129647       -4.7425844029
 H         -3.6138667903       -4.4344727682       -4.5786583463
 H         -3.2292462590       -5.7800117429       -2.5393303475
 H         -2.4779943541       -6.6989241369       -0.0686996723
 H         -1.5571825334       -6.9549402958        2.2121558757
 H         -0.4035225138       -5.0933657958        3.3090353366
 H         -0.1070063248       -2.9328450455        2.1663408209
 H          1.4362878128       -2.1897793263        0.3506022740
 H          2.8577405732        1.8290822462       -1.3119300428
 H          4.8959788256        3.0453242036       -1.9363023161
 H          6.9952356778        2.7174505159       -0.7154097895
 H          7.1177666854        1.1230177765        1.1716437542
 H          6.5871985783       -0.7203298497        3.1198786832
 H          5.5326371496       -2.3525167347        4.6498796424
 H          3.1492701741       -2.8845182881        4.4558445792
 H          1.7515499154       -1.8373314833        2.7250944638
 H          1.2986009163        2.0859082212        0.4138777311
 H         -2.8967716754        3.9103893832       -1.7028047041
 H         -5.2146888144        4.3010603907       -0.9870462964
  75
  -117.638064350800       0.130606464956321      !
 N         -0.9950544509        8.2637022636       -0.7180854685
 C         -1.1392515011        7.1484255371       -0.4846270798
 C         -1.3215338407        5.7808283128       -0.1995621759
 C         -2.1234852711        5.3858300430        0.8746628844
 C         -2.3064388989        4.0500743374        1.1471841343
 C         -1.6981533201        3.0694356030        0.3539370040
 N         -1.8940014066        1.7260760192        0.6204778721
 C         -3.0746729780        1.2714915611        1.2370395161
 C         -3.0043772384        0.2986130032        2.2317878113
 C         -4.1600480322       -0.1726109327        2.8251278569
 C         -5.3945719132        0.3246617582        2.4417196010
 C         -5.4677705000        1.2956368626        1.4564060503
 C         -4.3178340468        1.7659547592        0.8508368801
 C         -0.9280799653        0.7668532310        0.2849447222
 C         -1.3355189201       -0.4473268095       -0.2578481274
 C         -0.3997036887       -1.4337481260       -0.5462831544
 N         -0.8304858483       -2.6646611747       -1.0475829694
 C         -0.2895884514       -3.3485120061       -2.1207013579
 C          0.7293822681       -2.9790406521       -2.9857461378
 C          1.0599376630       -3.8473912974       -4.0084339794
 C          0.3882508983       -5.0549438979       -4.1815530783
 C         -0.6475493806       -5.4156364997       -3.3431410392
 C         -0.9959054918       -4.5581569458       -2.3081244811
 C         -2.0106485935       -4.6010551334       -1.2924839934
 C         -2.9898043204       -5.5292675150       -0.9645059554
 C         -3.8157209341       -5.2677978087        0.1102920268
 C         -3.6614968475       -4.1066032951        0.8634335572
 C         -2.6928521609       -3.1697067379        0.5574143357
 C         -1.8776950877       -3.4130077682       -0.5387574917
 C          0.9518554939       -1.1988557018       -0.3136655107
 C          1.3603840488        0.0263277792        0.2042239386
 N          2.7151501954        0.2583157644        0.4636307104
 C          3.7593713025        0.0277154265       -0.4111259084
 C          3.7288954815       -0.3810229526       -1.7357824319
 C          4.9323131634       -0.5110449869       -2.4017464079
 C          6.1431975901       -0.2292138228       -1.7739888088
 C          6.1788152831        0.2088451556       -0.4651990481
 C          4.9811778652        0.3447896321        0.2241181146
 C          4.6491782169        0.7838525395        1.5508351365
 C          5.4100229450        1.2042163684        2.6335546880
 C          4.7629853170        1.5435416453        3.8048146173
 C          3.3772127355        1.4513927459        3.9087319808
 C          2.5992923260        1.0358817109        2.8447319085
 C          3.2411153069        0.7182818412        1.6566259079
 C          0.4241882881        1.0085882797        0.5064452294
 C         -0.8928391778        3.4731766793       -0.7184581212
 C         -0.7054227327        4.8080815403       -0.9915592269
 H         -2.5911868697        6.1364097798        1.4943742433
 H         -2.9178541143        3.7509756298        1.9851056733
 H         -2.0387435781       -0.0794726223        2.5362671375
 H         -4.0943381297       -0.9278529439        3.5942319510
 H         -6.2953817018       -0.0427320575        2.9083157073
 H         -6.4270242287        1.6856160855        1.1510178167
 H         -4.3745046551        2.5175598076        0.0767414175
 H         -2.3800733905       -0.6184683502       -0.4639508056
 H          1.2419689386       -2.0364491896       -2.8777694234
 H          1.8539251887       -3.5810356330       -4.6901891171
 H          0.6772157142       -5.7085515808       -4.9906392526
 H         -1.1828128815       -6.3415339121       -3.4884202083
 H         -3.0963935512       -6.4363750878       -1.5396013477
 H         -4.5866282569       -5.9738800895        0.3796912933
 H         -4.3112295459       -3.9331661965        1.7083807991
 H         -2.5771534939       -2.2845058601        1.1630590281
 H          1.6771576041       -1.9753748166       -0.4961581617
 H          2.7946793650       -0.5764810641       -2.2388001182
 H          4.9328590838       -0.8328282868       -3.4325535145
 H          7.0633294212       -0.3463117869       -2.3262433610
 H          7.1155840097        0.4457885975        0.0157604737
 H          6.4853157861        1.2577671259        2.5571161000
 H          5.3351466741        1.8759064816        4.6577603058
 H          2.8991659754        1.7075916428        4.8425575826
 H          1.5277134347        0.9511696807        2.9448639914
 H          0.7476299200        1.9555620982        0.9087754536
 H         -0.4291776272        2.7262373486       -1.3447021856
 H         -0.0914879411        5.1113171192       -1.8265970725
  75
  -117.637991632900       0.120933282704233      !
 N         -6.6810099855        2.6461700388       -3.8876391025
 C         -5.7469134610        2.6025941621       -3.2217285465
 C         -4.5997735080        2.5503232278       -2.4049443836
 C         -4.5448224679        3.2877090865       -1.2188433488
 C         -3.4255690660        3.2321821675       -0.4202765233
 C         -2.3306894004        2.4403157638       -0.7839000677
 N         -1.2034898016        2.3686462249        0.0215310097
 C         -0.7825626652        3.4777266107        0.7728987867
 C         -0.8641409713        4.7629919902        0.2409639669
 C         -0.4469505470        5.8493621114        0.9861291029
 C          0.0652213740        5.6698987927        2.2606481671
 C          0.1565154105        4.3926411981        2.7887619705
 C         -0.2668363625        3.3009498226        2.0550370175
 C         -0.4815141256        1.1703223143        0.1009606599
 C         -1.1584775309       -0.0443526962        0.1619283415
 C         -0.4488955568       -1.2377203199        0.2276650267
 N         -1.1399882672       -2.4521775315        0.2569496463
 C         -2.1807552484       -2.8082717253       -0.5828171061
 C         -2.7512797572       -2.1095439285       -1.6369192633
 C         -3.7775975770       -2.7155448710       -2.3364116343
 C         -4.2254345063       -3.9931912624       -2.0103856347
 C         -3.6443542013       -4.7051475898       -0.9802909323
 C         -2.6133582948       -4.1148357597       -0.2616160727
 C         -1.7951898662       -4.5604791349        0.8314215578
 C         -1.7598327333       -5.7295561617        1.5796960323
 C         -0.8444700115       -5.8298371998        2.6082512250
 C          0.0139072282       -4.7744413320        2.9058612085
 C         -0.0050760772       -3.6021235843        2.1748745172
 C         -0.8996320154       -3.5060354391        1.1196251616
 C          0.9426866501       -1.2190702419        0.2525019856
 C          1.6169817253       -0.0027326810        0.2195802418
 N          3.0158821948        0.0232784314        0.2258334842
 C          3.8375497858       -0.6424653217        1.1144450813
 C          3.5057277182       -1.4039963999        2.2246655617
 C          4.5349808085       -1.9434450942        2.9719070544
 C          5.8685327629       -1.7239923060        2.6349829983
 C          6.2064786127       -0.9417662760        1.5486715932
 C          5.1880035843       -0.3904509195        0.7824940841
 C          5.1715459057        0.4686525154       -0.3685069455
 C          6.1697936911        1.0348634196       -1.1501854740
 C          5.8030431057        1.8159472299       -2.2277670856
 C          4.4610045924        2.0221243717       -2.5383190653
 C          3.4502463345        1.4689658360       -1.7753055783
 C          3.8120853702        0.7032166744       -0.6766188301
 C          0.9090391407        1.1908921038        0.1424391928
 C         -2.3880789234        1.7151604170       -1.9802179289
 C         -3.5066793900        1.7642264549       -2.7792400656
 H         -5.3912237935        3.8921979936       -0.9284122468
 H         -3.3907887136        3.7931236307        0.5015395830
 H         -1.2514939762        4.9028955514       -0.7578654402
 H         -0.5147807070        6.8407822309        0.5640633453
 H          0.3927659734        6.5204694631        2.8382795726
 H          0.5528455858        4.2439964167        3.7820864408
 H         -0.2044231505        2.3059083324        2.4706395504
 H         -2.2367914018       -0.0588947447        0.1753993059
 H         -2.4054512162       -1.1268409052       -1.9147830362
 H         -4.2410437375       -2.1860178585       -3.1557721081
 H         -5.0317240725       -4.4310661730       -2.5790989901
 H         -3.9786023058       -5.7019798029       -0.7361843580
 H         -2.4400601342       -6.5384526068        1.3606431173
 H         -0.7976026997       -6.7314936888        3.2000077931
 H          0.7069643549       -4.8714588982        3.7282887474
 H          0.6477629504       -2.7833384186        2.4320627174
 H          1.4977689021       -2.1432538253        0.2632122117
 H          2.4763710305       -1.5583905899        2.5083711873
 H          4.2998818191       -2.5439456799        3.8381161313
 H          6.6451433911       -2.1646932353        3.2416917021
 H          7.2398821848       -0.7554639921        1.2987359741
 H          7.2095204002        0.8607425284       -0.9184320399
 H          6.5631783290        2.2676450716       -2.8471144475
 H          4.2037938424        2.6247729924       -3.3968026090
 H          2.4138779003        1.6209185063       -2.0369672763
 H          1.4370214803        2.1311939620        0.1242773718
 H         -1.5341521721        1.1262150713       -2.2807267314
 H         -3.5422789981        1.2066130165       -3.7035619795
  75
  -117.637794823100       9.819702266471173E-002 !
 N         -7.5329744275        3.3988411386        0.5588050942
 C         -6.4281163757        3.2038822060        0.3155940152
 C         -5.0701856180        2.9666803148        0.0237771205
 C         -4.2877607784        2.2009546632        0.8922427354
 C         -2.9607977461        1.9737874056        0.6089967678
 C         -2.3770973656        2.5014642318       -0.5490842217
 N         -1.0378646930        2.2798647616       -0.8322698024
 C         -0.2892587478        3.2503271072       -1.5240790644
 C          0.6193850243        2.8636093846       -2.5063684121
 C          1.3629629962        3.8162410321       -3.1765444817
 C          1.2059669509        5.1607273591       -2.8827011817
 C          0.3027218213        5.5488270967       -1.9067940594
 C         -0.4389121099        4.6026318396       -1.2253785651
 C         -0.4010652757        1.1003752872       -0.4283450954
 C         -1.0744538898       -0.1175301097       -0.4774836952
 C         -0.4299085160       -1.2855463131       -0.0883585998
 N         -1.1091088067       -2.5064045061       -0.1445190532
 C         -1.8224791463       -2.9863063302       -1.2266377635
 C         -2.0058427118       -2.4299645588       -2.4841832978
 C         -2.7491255425       -3.1444253784       -3.4046231193
 C         -3.2928613349       -4.3881128949       -3.0926673593
 C         -3.0934378407       -4.9580593238       -1.8511516439
 C         -2.3506760517       -4.2584818711       -0.9094748278
 C         -1.9375022843       -4.5495411789        0.4351523674
 C         -2.1604594454       -5.6203404409        1.2905941878
 C         -1.6259590426       -5.5728546597        2.5625548336
 C         -0.8911071391       -4.4692892747        2.9894066260
 C         -0.6563466834       -3.3919221434        2.1562717804
 C         -1.1695458765       -3.4450208512        0.8684348245
 C          0.8878016122       -1.2446997568        0.3549614717
 C          1.5599295620       -0.0282105111        0.4021336949
 N          2.8838678395        0.0220657119        0.8487735193
 C          3.3842452867        0.8998243149        1.7916564475
 C          2.7256766731        1.8637757089        2.5411841942
 C          3.4677673767        2.5930272595        3.4507298273
 C          4.8315749306        2.3686861577        3.6230839839
 C          5.4873354101        1.3937446229        2.8982646550
 C          4.7624231912        0.6479000564        1.9783026403
 C          5.1041284517       -0.4317518334        1.0945482027
 C          6.2902121988       -1.0986367542        0.8178417668
 C          6.2786766146       -2.1031093933       -0.1291315285
 C          5.1079560408       -2.4340004718       -0.8073607255
 C          3.9157400324       -1.7843571082       -0.5493702904
 C          3.9156117334       -0.7912076103        0.4192375064
 C          0.9200551479        1.1407673608        0.0088605008
 C         -3.1680687534        3.2660656588       -1.4150862122
 C         -4.4946616105        3.4973872985       -1.1339401566
 H         -4.7285141564        1.7982529361        1.7920646213
 H         -2.3579191746        1.3938139663        1.2912622298
 H          0.7369992480        1.8153487343       -2.7391836118
 H          2.0634935853        3.5057723095       -3.9371195299
 H          1.7853236208        5.9022326777       -3.4105919344
 H          0.1790032687        6.5942927484       -1.6676597874
 H         -1.1360970523        4.9043061515       -0.4571071335
 H         -2.1001354160       -0.1567704713       -0.8086215049
 H         -1.5733169581       -1.4757964904       -2.7453391669
 H         -2.9085643786       -2.7297259584       -4.3889301619
 H         -3.8697433113       -4.9137762077       -3.8385344627
 H         -3.5002115769       -5.9292413608       -1.6137772479
 H         -2.7446315441       -6.4673650925        0.9644965244
 H         -1.7856638569       -6.3954696417        3.2431849618
 H         -0.4991000382       -4.4522578883        3.9954849422
 H         -0.1015856171       -2.5342262052        2.5058514003
 H          1.3855093348       -2.1512165093        0.6586080099
 H          1.6652564202        2.0338263384        2.4302669467
 H          2.9776722671        3.3509826091        4.0436649751
 H          5.3767611339        2.9612389011        4.3422099293
 H          6.5404710950        1.2073237715        3.0438860500
 H          7.2004509350       -0.8303710283        1.3322307344
 H          7.1892478178       -2.6362128549       -0.3575253003
 H          5.1322148823       -3.2131012689       -1.5547438029
 H          3.0196132703       -2.0370736162       -1.0957976786
 H          1.4536360420        2.0777803086        0.0298298404
 H         -2.7302327659        3.6691557602       -2.3157876341
 H         -5.1002892624        4.0823143717       -1.8100668969
  75
  -117.637525461300       7.384280880616484E-002 !
 N         -7.3937244921        3.5879522349        0.9268744229
 C         -6.3145830236        3.3509752640        0.6144358424
 C         -4.9880249018        3.0693838407        0.2324402588
 C         -4.1691358704        2.2889456351        1.0528423468
 C         -2.8708082293        2.0248397408        0.6832601442
 C         -2.3516693481        2.5297000427       -0.5155631610
 N         -1.0399679652        2.2719232834       -0.8774697260
 C         -0.3082985085        3.1866344221       -1.6552389149
 C          0.5469265620        2.7214166147       -2.6518536698
 C          1.2776514127        3.6144423904       -3.4118997178
 C          1.1615628909        4.9773519742       -3.1937890071
 C          0.3138267078        5.4434277782       -2.2022874936
 C         -0.4145340590        4.5574125534       -1.4313253134
 C         -0.4028289906        1.0933576271       -0.4623414928
 C         -1.0764606626       -0.1234623107       -0.5079933748
 C         -0.4296358044       -1.2906325669       -0.1187460732
 N         -1.1002298360       -2.5142985305       -0.1993522381
 C         -1.8021936650       -2.9746363398       -1.2980423238
 C         -1.9778009692       -2.3924539124       -2.5450450811
 C         -2.7111915946       -3.0895976621       -3.4864000069
 C         -3.2527679825       -4.3415225662       -3.2052551881
 C         -3.0585080753       -4.9381550614       -1.9755463075
 C         -2.3244504815       -4.2567605577       -1.0138099639
 C         -1.9167779987       -4.5768563877        0.3258931060
 C         -2.1335238173       -5.6716246823        1.1520020269
 C         -1.6050949138       -5.6524677468        2.4272633334
 C         -0.8834761409       -4.5532082797        2.8863599421
 C         -0.6550389446       -3.4523339795        2.0826006125
 C         -1.1602054235       -3.4772285160        0.7907425565
 C          0.8819279785       -1.2432859434        0.3425452286
 C          1.5497823932       -0.0244647438        0.3981215533
 N          2.8593637223        0.0369975465        0.8823996702
 C          3.3202223811        0.9277589191        1.8343597267
 C          2.6326651587        1.9039255669        2.5408311147
 C          3.3363196621        2.6444908980        3.4716182087
 C          4.6903622445        2.4192792035        3.7072944885
 C          5.3738408773        1.4316975286        3.0265343538
 C          4.6877169410        0.6749913477        2.0859225724
 C          5.0644639062       -0.4199943322        1.2358645855
 C          6.2595206591       -1.0945941289        1.0246185276
 C          6.2870124741       -2.1158522930        0.0961141069
 C          5.1468984752       -2.4548605525       -0.6285215577
 C          3.9467069717       -1.7968958006       -0.4365639170
 C          3.9061183504       -0.7871960975        0.5139145340
 C          0.9147232256        1.1397434174       -0.0180392591
 C         -3.1811911946        3.3035895221       -1.3363422398
 C         -4.4792992646        3.5717382291       -0.9685419794
 H         -4.5581915357        1.9049682675        1.9842204996
 H         -2.2386370399        1.4344521760        1.3291316026
 H          0.6323919453        1.6586172282       -2.8254478747
 H          1.9357020622        3.2426971041       -4.1829101559
 H          1.7291262962        5.6725467304       -3.7928183313
 H          0.2249981639        6.5038218489       -2.0199587354
 H         -1.0654431415        4.9210915101       -0.6495500016
 H         -2.1025263508       -0.1613204981       -0.8382966171
 H         -1.5463445898       -1.4318264585       -2.7830592073
 H         -2.8640960649       -2.6546163845       -4.4629689693
 H         -3.8224161483       -4.8528839263       -3.9665187677
 H         -3.4619147567       -5.9164528909       -1.7629031024
 H         -2.7079269247       -6.5153223430        0.8009716265
 H         -1.7583099186       -6.4949086740        3.0847074464
 H         -0.4962426885       -4.5586445251        3.8943948962
 H         -0.1114893747       -2.5984217534        2.4580082569
 H          1.3786295410       -2.1475705460        0.6541393030
 H          1.5785783955        2.0754616779        2.3824323642
 H          2.8226999139        3.4121496964        4.0312218221
 H          5.2051074684        3.0205163223        4.4414627924
 H          6.4188111311        1.2442554758        3.2211844795
 H          7.1464437235       -0.8194795805        1.5748345129
 H          7.2049240278       -2.6556684066       -0.0813406570
 H          5.2017126394       -3.2476275105       -1.3597139662
 H          3.0757029984       -2.0566963454       -1.0190725012
 H          1.4463253245        2.0780871218       -0.0054484640
 H         -2.7968620373        3.6846803964       -2.2703851210
 H         -5.1146948493        4.1652036445       -1.6090248558
  75
  -117.637448439500       6.806305514910650E-002 !
 N         -1.5350941976        7.1017260908        3.9574569980
 C         -1.5588046257        6.2279714368        3.2132745444
 C         -1.5894784785        5.1568119495        2.2977697639
 C         -1.3998714636        3.8451113419        2.7404940585
 C         -1.4257097618        2.8023245375        1.8429824025
 C         -1.6371077428        3.0395285116        0.4799910626
 N         -1.6575013069        1.9925675760       -0.4334499574
 C         -2.5200092632        2.0658954327       -1.5445047738
 C         -3.8278900132        2.5166308742       -1.3815315603
 C         -4.6780047218        2.5858607112       -2.4688272968
 C         -4.2396770607        2.1999793538       -3.7248921779
 C         -2.9403749594        1.7488741498       -3.8898467144
 C         -2.0804230175        1.6848981774       -2.8098269380
 C         -0.8263978943        0.8803886010       -0.2793705980
 C         -1.2353758670       -0.3675830317       -0.7448593060
 C         -0.3994358294       -1.4695003358       -0.6143371474
 N         -0.8030073738       -2.7135774378       -1.1098377525
 C         -0.0447671059       -3.5378036290       -1.9202281626
 C          1.2177398653       -3.3327927621       -2.4578599619
 C          1.7410600834       -4.3196555230       -3.2714702445
 C          1.0282392585       -5.4819677182       -3.5561309448
 C         -0.2391565307       -5.6796164920       -3.0457891183
 C         -0.7863261057       -4.7014236097       -2.2259969208
 C         -2.0520171392       -4.5662367659       -1.5604863824
 C         -3.1743484798       -5.3789248218       -1.4724436748
 C         -4.2442908473       -4.9490830368       -0.7132822276
 C         -4.1976799183       -3.7337151256       -0.0345315610
 C         -3.0914579881       -2.9084239605       -0.1063877341
 C         -2.0228767697       -3.3231072750       -0.8879922337
 C          0.8424753111       -1.3406010588       -0.0020309507
 C          1.2495771593       -0.0962104802        0.4658504694
 N          2.4947240195        0.0431537931        1.0871547525
 C          3.4375070039        1.0132698537        0.8061226369
 C          3.4262555422        2.0043991055       -0.1646774219
 C          4.5262533032        2.8365032835       -0.2510625261
 C          5.6202262976        2.6867218572        0.5978951391
 C          5.6486246805        1.6859739564        1.5485038093
 C          4.5543412003        0.8379255017        1.6547062067
 C          4.2586557575       -0.2912744417        2.4918065830
 C          4.9470935324       -0.9234833029        3.5187048799
 C          4.3522001777       -1.9968510743        4.1509881644
 C          3.0812792746       -2.4306763298        3.7813432404
 C          2.3767148451       -1.8173059976        2.7629038164
 C          2.9798870518       -0.7540850928        2.1067264195
 C          0.4244387757        1.0117238350        0.3202714932
 C         -1.8360888637        4.3550467450        0.0456824536
 C         -1.8123691820        5.4004110138        0.9398959744
 H         -1.2413618006        3.6547286253        3.7915628293
 H         -1.2925718850        1.7893067124        2.1916503868
 H         -4.1712143220        2.8081006207       -0.3994070972
 H         -5.6902846388        2.9349818070       -2.3312330228
 H         -4.9075158287        2.2499412836       -4.5708706309
 H         -2.5902970530        1.4505937023       -4.8666111462
 H         -1.0649258936        1.3402919610       -2.9393363620
 H         -2.1937786344       -0.4786558789       -1.2262900997
 H          1.7729239312       -2.4282677332       -2.2604844397
 H          2.7235544096       -4.1839290165       -3.6986469685
 H          1.4735557246       -6.2310349661       -4.1934178229
 H         -0.7994736708       -6.5718335955       -3.2803715064
 H         -3.2026954043       -6.3282591739       -1.9853421181
 H         -5.1278776901       -5.5642750876       -0.6337799360
 H         -5.0432533656       -3.4306601386        0.5649254724
 H         -3.0601196734       -1.9774386539        0.4395131691
 H          1.4864521679       -2.1980610449        0.1053189993
 H          2.5931326926        2.1181595964       -0.8419649887
 H          4.5385517350        3.6182573772       -0.9960823006
 H          6.4591994343        3.3590934259        0.5006764105
 H          6.5028488787        1.5588788423        2.1959074967
 H          5.9245808232       -0.5754383763        3.8160658918
 H          4.8712667991       -2.5046012787        4.9499391851
 H          2.6337569482       -3.2626550921        4.3044582207
 H          1.3844557052       -2.1510827172        2.4992927335
 H          0.7549246796        1.9714460963        0.6840004667
 H         -1.9981597505        4.5470765436       -1.0044238220
 H         -1.9550702082        6.4142009869        0.5966820973
