  52
        -89.94766485
 N         -5.9112486075       -1.8376067270       -0.7546759731
 C         -4.9290670240       -1.2884420181       -0.5356473204
 C         -3.7075332147       -0.6318372474       -0.2661556652
 C         -2.5020052300       -1.2687699569       -0.5363332674
 C         -1.2904341991       -0.6381744522       -0.2820582384
 N         -0.0996002763       -1.2755201277       -0.6146563699
 C          0.3008145780       -2.5439333501       -0.2113471207
 C         -0.3896161234       -3.4963476823        0.5187977516
 C          0.2630143532       -4.6797390077        0.8139579555
 C          1.5727671059       -4.9113463983        0.4034413641
 C          2.2748571585       -3.9545383078       -0.3026570975
 C          1.6385888719       -2.7597133291       -0.6105825008
 C          2.0673353951       -1.5618126480       -1.2766876553
 C          3.2337659493       -1.1165411376       -1.8772947517
 C          3.2255266653        0.1624798844       -2.4139126667
 C          2.0686951297        0.9305719912       -2.3540661816
 N          0.9393087441        0.5322207902       -1.7869499299
 C          0.9647763679       -0.6740584690       -1.2477964202
 C         -1.2850693520        0.6566218473        0.2820239928
 N         -0.0885706995        1.2818270263        0.6176489793
 C          0.3302712510        2.5426228917        0.2091862789
 C         -0.3467682653        3.5023520921       -0.5236942049
 C          0.3236318260        4.6740770863       -0.8256593466
 C          1.6377242182        4.8868251339       -0.4192498116
 C          2.3256548891        3.9231217515        0.2913933159
 C          1.6712325260        2.7402496494        0.6071268471
 C          2.0820569728        1.5394521240        1.2794075947
 C          3.2404981318        1.0805384970        1.8851846800
 C          3.2122915885       -0.1951086638        2.4292169474
 C          2.0449691341       -0.9471926195        2.3700513777
 N          0.9230186444       -0.5359428122        1.7973983555
 C          0.9668035925        0.6676424317        1.2534798643
 C         -2.4911560236        1.2984138106        0.5342490524
 C         -3.7020627303        0.6721635666        0.2631444459
 C         -4.9190510299        1.3373217894        0.5323276111
 N         -5.8992622686        1.8904201143        0.7507282777
 H         -2.5095089691       -2.2517204740       -0.9834386714
 H         -1.3961575134       -3.3214327762        0.8662754062
 H         -0.2557547903       -5.4388687595        1.3801584798
 H          2.0462568921       -5.8492349362        0.6517850780
 H          3.2970074976       -4.1229571677       -0.6057388718
 H          4.1137893760       -1.7409516701       -1.9245671315
 H          4.1074865718        0.5646430256       -2.8864244507
 H          2.0343916576        1.9247950148       -2.7777433174
 H         -1.3565151601        3.3414123743       -0.8684208809
 H         -0.1839707279        5.4381937639       -1.3950212305
 H          2.1261472565        5.8150833524       -0.6747238055
 H          3.3509714326        4.0770267241        0.5913488781
 H          4.1293703093        1.6923097257        1.9315704979
 H          4.0873827318       -0.6071945266        2.9061985942
 H          1.9963556254       -1.9396480311        2.7964978492
 H         -2.4900009094        2.2814648084        0.9813070718
