53
 energy: -78.632663267096 gnorm: 0.000054100048 xtb: 6.7.1 (edcfbbe)
C           -5.18092997412682       -0.73085571301999        1.53189377702562
C           -4.45277225609534       -0.42213201802134        0.20757139346054
C           -5.46642281359122       -0.37592465257193       -0.95434077172322
C           -3.78730296817640        0.92938922522215        0.33037156923279
C           -4.55468893554856        2.05455805419902        0.59989500725587
C           -3.98775686778203        3.30676164654127        0.75306994696102
C           -2.61024543310491        3.45426995339664        0.65351925773427
C           -1.82341919665874        2.36007893620785        0.38059357157271
C           -2.39591352702032        1.08994283175501        0.19453734789733
N           -1.58404425776327        0.01890836701182       -0.10287330894303
C           -0.19163269442630        0.23957329430595       -0.28583760157268
C            0.28260339480178        0.85067839818150       -1.45462259650823
C            1.62440928986940        1.04602379421723       -1.63152318829454
C            2.56780358205143        0.61986915746637       -0.66025146928508
C            3.95993919946274        0.86930941968607       -0.90865500167585
O            4.31993239547063        1.69195383327439       -1.81370616082682
C            4.98997666158772        0.18833594071799       -0.11735789686187
C            6.20961468741868        0.83964893945401        0.11404639623538
C            7.21705625312670        0.21730657194922        0.81983169051833
C            7.04522898598843       -1.07557510565062        1.29449304112747
C            5.85734317625658       -1.74538673554486        1.03612794396690
C            4.84107814390589       -1.12907045109421        0.33501674090905
C            2.06232893420250        0.06455477306018        0.53809404421960
C            0.71658045462784       -0.13208064501078        0.71314200893755
C           -2.08191882263720       -1.25775699993973       -0.23790295190848
C           -1.20833978611782       -2.30970566300318       -0.56288596061693
C           -1.67130112119673       -3.59900407662297       -0.68209957161777
C           -3.02009500240278       -3.86889021411051       -0.48986153396790
C           -3.89006792001303       -2.83398189611437       -0.19919803835120
C           -3.45409278120519       -1.52164659140657       -0.07277835639178
H           -5.92437959126368        0.03000975439389        1.74779425677363
H           -4.46608709689098       -0.75764562559033        2.35194232681516
H           -5.68269926725602       -1.69199672674076        1.47980478142704
H           -4.95305910060123       -0.15534016437027       -1.88828803479205
H           -6.21314724530071        0.39293703601108       -0.78154225727140
H           -5.97449930551622       -1.32970706103991       -1.05796861019453
H           -5.62435293763364        1.95764046945977        0.69676189241138
H           -4.61309760555087        4.16123434358833        0.96089348361932
H           -2.15210184293038        4.42158465107753        0.79130058861237
H           -0.75308096603536        2.47090241659971        0.31249116216751
H           -0.42179690934019        1.15290844216434       -2.21631260970947
H            2.00955038631008        1.51223313416778       -2.52684496946379
H            6.33598641455029        1.84383908925864       -0.26564970837142
H            8.14485041534419        0.74199394685391        1.00065726050413
H            7.83602661627914       -1.56305454182176        1.84535907632955
H            5.72873564349755       -2.76430516790450        1.37401051135821
H            3.94200931346704       -1.67925932896524        0.09895106509645
H            2.74102500243642       -0.17571948532161        1.34185860835085
H            0.34206112846038       -0.55501993492466        1.63463763215555
H           -0.16379833949641       -2.09615835619834       -0.72283871050653
H           -0.98458389714274       -4.39407659738279       -0.92893138356586
H           -3.39129749245735       -4.87826456530688       -0.57788365255100
H           -4.93688342649719       -3.06046805047345       -0.07292575355474
