  73
       -119.41151343
 O          6.3475877638        2.8683143713       -1.2988181175
 C          5.9695250780        1.8623320669       -0.7201795479
 C          6.8848307316        0.9158210065       -0.0643187079
 C          8.2651759060        1.1374467054       -0.0814259964
 C          9.1277618171        0.2563499970        0.5284279802
 C          8.6243102944       -0.8715198002        1.1713462270
 C          7.2681020120       -1.1121935663        1.2030188868
 C          6.3900471578       -0.2204048035        0.5860776093
 O          5.0680608678       -0.5152081588        0.6548048436
 C          4.1767963320        0.3185709499        0.0701315185
 C          2.8314401581       -0.0280313998        0.1740491748
 C          1.8511193452        0.7743228604       -0.3872749571
 C          0.4320963962        0.4131070181       -0.2596933410
 C         -0.5207413312        1.3996618002       -0.0302027899
 C         -1.8647648000        1.0648637550        0.0949728340
 N         -2.8128412464        2.0677999167        0.3188333454
 C         -3.7870413028        2.0659019993        1.2986241943
 C         -4.0393894488        1.1328787232        2.2937890088
 C         -5.0705973304        1.3936978112        3.1758490783
 C         -5.8314107654        2.5567898551        3.0824792184
 C         -5.5691089609        3.5003567279        2.1094681505
 C         -4.5380767016        3.2602755682        1.2108747868
 C         -3.9884868164        4.0102540496        0.1158126485
 C         -4.3090131804        5.2314721018       -0.4623327871
 C         -3.5759956570        5.6610143921       -1.5505626206
 C         -2.5459876810        4.8821855578       -2.0732483820
 C         -2.2083126050        3.6642802289       -1.5145526775
 C         -2.9238088253        3.2399652199       -0.4041827749
 C         -2.2628500824       -0.2637443556        0.0032900837
 C         -1.3133428991       -1.2537631962       -0.2256252950
 N         -1.7109023111       -2.5904018454       -0.3265739329
 C         -1.1302085869       -3.6563179879        0.3340805945
 C         -0.0927468833       -3.6678733077        1.2550432471
 C          0.2802340642       -4.8850624512        1.7928054736
 C         -0.3659018457       -6.0663246445        1.4361009667
 C         -1.4172701953       -6.0576115039        0.5413920597
 C         -1.8090452230       -4.8463885221       -0.0131628736
 C         -2.8458283056       -4.4717898782       -0.9341677937
 C         -3.8122683617       -5.1900966095       -1.6257240003
 C         -4.6616518467       -4.5086868039       -2.4743036112
 C         -4.5447404245       -3.1318971806       -2.6501174834
 C         -3.5912525990       -2.3958124347       -1.9727117111
 C         -2.7524746487       -3.0710162868       -1.0978846217
 C          0.0283704463       -0.9140565134       -0.3622233310
 C          2.2302895347        1.9373943601       -1.0706038219
 C          3.5554691133        2.2784070755       -1.1793050472
 C          4.5538951016        1.4822750000       -0.6098174979
 H          8.6215702059        2.0213790060       -0.5887010168
 H         10.1913668201        0.4372808405        0.5101111687
 H          9.2992759542       -1.5633850827        1.6512345773
 H          6.8593385780       -1.9793619873        1.6972520965
 H          2.5757510947       -0.9220238032        0.7209231737
 H         -0.2184891005        2.4277999070        0.0906230592
 H         -3.4438839212        0.2374173213        2.3885593696
 H         -5.2890038140        0.6806527065        3.9569576310
 H         -6.6307011783        2.7223281073        3.7892951724
 H         -6.1474526382        4.4096562399        2.0471253862
 H         -5.1189782880        5.8264352447       -0.0684549290
 H         -3.8071484412        6.6084766451       -2.0135571332
 H         -2.0019647450        5.2356618661       -2.9367217701
 H         -1.4232978328        3.0575642517       -1.9407233945
 H         -3.3036949785       -0.5256279131        0.1079944916
 H          0.3991775559       -2.7553510898        1.5566592627
 H          1.0877885088       -4.9201894319        2.5089561453
 H         -0.0432614039       -6.9977866652        1.8763518092
 H         -1.9305542569       -6.9700175564        0.2785427644
 H         -3.8904763802       -6.2595802152       -1.5024628723
 H         -5.4220145599       -5.0473307033       -3.0195078790
 H         -5.2114200838       -2.6277718481       -3.3339266211
 H         -3.4975794197       -1.3324870002       -2.1338086204
 H          0.7501215052       -1.6835903286       -0.5855212213
 H          1.4749030351        2.5561431077       -1.5294595108
 H          3.8669060318        3.1675854837       -1.7057701157
  73
       -119.41147996
 O          6.7277359061       -0.1847677660       -2.2363967136
 C          6.1293983968        0.4260131654       -1.3649750915
 C          6.7792295959        1.3878823773       -0.4614772299
 C          8.1492324032        1.6458079807       -0.5679420801
 C          8.7649092879        2.5426428309        0.2741022428
 C          8.0182276844        3.2040250665        1.2456151686
 C          6.6667137297        2.9678855362        1.3705333099
 C          6.0386332499        2.0590405099        0.5181510491
 O          4.7064558071        1.8742696292        0.6929234952
 C          4.0527415349        1.0009629160       -0.1080535744
 C          2.6859910693        0.8476979531        0.1134248759
 C          1.9416056484       -0.0333780975       -0.6543951189
 C          0.5004719242       -0.1913669307       -0.4099163057
 C         -0.2881680235        0.9186991024       -0.1284906590
 C         -1.6508261544        0.7732220123        0.1101543920
 N         -2.4225178122        1.8978538641        0.4205390801
 C         -3.6246016338        2.2531408010       -0.1603445918
 C         -4.3253672679        1.6425298779       -1.1894254505
 C         -5.5059949840        2.2271291394       -1.6057161838
 C         -5.9804214281        3.4001053060       -1.0234509793
 C         -5.2736164231        4.0289083845       -0.0179200695
 C         -4.0849386616        3.4582851134        0.4174617455
 C         -3.1083004446        3.8401563509        1.3990681272
 C         -3.0136745543        4.9026683330        2.2881431043
 C         -1.9252017292        4.9614987262        3.1351652873
 C         -0.9487211816        3.9682787111        3.1158538386
 C         -1.0220843165        2.9013912478        2.2407993754
 C         -2.0982706618        2.8521089703        1.3666330363
 C         -2.2338100298       -0.4883605694        0.0673691733
 C         -1.4501564423       -1.6002976176       -0.2229995566
 N         -2.0233835771       -2.8761781211       -0.2459860374
 C         -1.5431255050       -3.9855799689        0.4249559283
 C         -0.4519476995       -4.1037159841        1.2736087968
 C         -0.2067219221       -5.3395174491        1.8415314345
 C         -1.0278991069       -6.4348113145        1.5843207984
 C         -2.1298147458       -6.3171225389        0.7611268513
 C         -2.3964919260       -5.0851065055        0.1787222455
 C         -3.4382724489       -4.6088079427       -0.6878030467
 C         -4.5384676385       -5.2143240596       -1.2803214789
 C         -5.3483520233       -4.4564791229       -2.1024147755
 C         -5.0619982170       -3.1162272330       -2.3507806048
 C         -3.9722239811       -2.4936379818       -1.7731551538
 C         -3.1711266338       -3.2409715013       -0.9229584207
 C         -0.0890964968       -1.4496226089       -0.4661169785
 C          2.5796589608       -0.7688863825       -1.6614837853
 C          3.9252013632       -0.6144473055       -1.8866913992
 C          4.6888055956        0.2686661113       -1.1171706859
 H          8.6980721535        1.1144508522       -1.3308773661
 H          9.8230779203        2.7332137691        0.1845327318
 H          8.4995838206        3.9082115117        1.9076170913
 H          6.0716556650        3.4710615593        2.1167880330
 H          2.2307340530        1.4172883116        0.9084378439
 H          0.1473984483        1.9051962124       -0.1271956996
 H         -3.9564377668        0.7463115130       -1.6628052332
 H         -6.0719024054        1.7648549715       -2.4008764641
 H         -6.9095884020        3.8244618098       -1.3731623220
 H         -5.6311466880        4.9478726522        0.4211874061
 H         -3.7798417050        5.6624210540        2.3146315213
 H         -1.8306415207        5.7808003495        3.8319002156
 H         -0.1192088898        4.0295319152        3.8047639830
 H         -0.2735575737        2.1235342081        2.2522801107
 H         -3.2818326542       -0.6089045497        0.2926806343
 H          0.1811692670       -3.2580400368        1.4962098395
 H          0.6386120207       -5.4566213054        2.5032357741
 H         -0.8015264061       -7.3839473432        2.0462643100
 H         -2.7774320777       -7.1604945852        0.5755313060
 H         -4.7484396792       -6.2581877087       -1.1032760632
 H         -6.2099262495       -4.9074171783       -2.5712321383
 H         -5.7020696470       -2.5523147239       -3.0130401497
 H         -3.7451852519       -1.4619968425       -1.9922550009
 H          0.5086445626       -2.3188929333       -0.6897436328
 H          2.0019112762       -1.4418191485       -2.2758871130
 H          4.4330929594       -1.1657747704       -2.6630143874
  73
       -119.41142509
 O          6.9705808674       -0.5728538648        1.0580524057
 C          6.2745101320        0.1949354720        0.4131045863
 C          6.8193967709        1.3075177046       -0.3795087495
 C          8.1989328800        1.5275204029       -0.4369687063
 C          8.7166576044        2.5642035306       -1.1781271444
 C          7.8596542482        3.4082633068       -1.8793997466
 C          6.4964336425        3.2133571194       -1.8381200905
 C          5.9674909743        2.1613596759       -1.0894781709
 O          4.6183824420        2.0230365401       -1.0935785610
 C          4.0584042405        1.0096261530       -0.3928788638
 C          2.6700023787        0.9030643509       -0.4427281311
 C          2.0165823933       -0.1125872003        0.2364396741
 C          0.5519528884       -0.2283392352        0.1831546540
 C         -0.2489432981        0.9084051385        0.2144525991
 C         -1.6345855891        0.7940131749        0.1801940902
 N         -2.4301575874        1.9434473547        0.2416092829
 C         -3.4783223034        2.2516174375       -0.6040918410
 C         -3.9459242631        1.5707678821       -1.7179899683
 C         -5.0058837563        2.1182532616       -2.4147727699
 C         -5.5856568344        3.3232572501       -2.0253338893
 C         -5.1062259285        4.0212792790       -0.9349501200
 C         -4.0427875331        3.4885760495       -0.2183689957
 C         -3.2949661217        3.9405722539        0.9215593656
 C         -3.3860474634        5.0596771720        1.7385346514
 C         -2.5026182437        5.1828506510        2.7921249912
 C         -1.5486384344        4.1997975727        3.0445919825
 C         -1.4391324114        3.0772413287        2.2459290496
 C         -2.3074335703        2.9602508832        1.1701700898
 C         -2.2290848665       -0.4614067572        0.1093711661
 C         -1.4319791606       -1.5998518298        0.0627498037
 N         -2.0164160406       -2.8694023784        0.0124110644
 C         -1.6864139052       -3.9334598354        0.8313012732
 C         -0.7822303312       -3.9955458887        1.8817107013
 C         -0.6615240538       -5.1927767634        2.5610992112
 C         -1.4265310819       -6.3046660993        2.2168733080
 C         -2.3499355204       -6.2403553061        1.1927721863
 C         -2.4885353295       -5.0474646699        0.4956648151
 C         -3.3414101450       -4.6275885845       -0.5810354663
 C         -4.3179065319       -5.2702271748       -1.3302442685
 C         -4.9515368930       -4.5665479354       -2.3348819248
 C         -4.6080270750       -3.2449855881       -2.6083560054
 C         -3.6384513395       -2.5864498704       -1.8768334006
 C         -3.0193424876       -3.2771268875       -0.8460411088
 C         -0.0464640931       -1.4806119877        0.0964449486
 C          2.7698890859       -1.0293951814        0.9817697479
 C          4.1371147135       -0.9221763495        1.0387530407
 C          4.8092518785        0.0938528868        0.3530662549
 H          8.8340912144        0.8542062142        0.1185226452
 H          9.7829074102        2.7248504856       -1.2167742133
 H          8.2639735521        4.2224016525       -2.4615651693
 H          5.8170822043        3.8566651980       -2.3751023277
 H          2.1234678275        1.6146941695       -1.0415400170
 H          0.2004892458        1.8867072681        0.2757958086
 H         -3.4879457757        0.6498015383       -2.0431988202
 H         -5.3898855886        1.6022434547       -3.2822434583
 H         -6.4138199418        3.7182968002       -2.5941813034
 H         -5.5422027289        4.9650027716       -0.6444393386
 H         -4.1368748240        5.8123536352        1.5518042984
 H         -2.5540394123        6.0464560004        3.4379664767
 H         -0.8813292615        4.3147086493        3.8858508798
 H         -0.7083996402        2.3130256525        2.4641797304
 H         -3.3037768881       -0.5525395389        0.1255694533
 H         -0.2012352602       -3.1336556030        2.1732497345
 H          0.0394593986       -5.2664038575        3.3793195791
 H         -1.3001309147       -7.2235357237        2.7693188581
 H         -2.9579976511       -7.0951345794        0.9383946129
 H         -4.5703392295       -6.3002541303       -1.1293877529
 H         -5.7165899018       -5.0461469211       -2.9265237040
 H         -5.1065769318       -2.7243865267       -3.4125230762
 H         -3.3638334452       -1.5708400262       -2.1141090982
 H          0.5623745080       -2.3673435157        0.0202466316
 H          2.2678242409       -1.8120520716        1.5289607818
 H          4.7334567808       -1.6159260684        1.6115808720
  73
       -119.41137319
 O          6.6183080028        0.0539904633       -2.4988857552
 C          6.0820911760        0.5228482990       -1.5078955070
 C          6.8083532427        1.2847299128       -0.4807121284
 C          8.1866958176        1.4908983597       -0.5932107219
 C          8.8738190089        2.1983025502        0.3657374011
 C          8.1919616000        2.7185742698        1.4625869154
 C          6.8335865374        2.5309281431        1.5956530342
 C          6.1334063802        1.8123019584        0.6259548848
 O          4.7995426975        1.6612970773        0.8185010344
 C          4.0808573250        0.9514157979       -0.0819076686
 C          2.7198575783        0.8033280903        0.1770182370
 C          1.9160017739        0.0723280241       -0.6822100284
 C          0.4847066284       -0.1017365562       -0.3944886304
 C         -0.2754403122        0.9602079019        0.0832594459
 C         -1.6287122703        0.7894358318        0.3548991697
 N         -2.3923419896        1.8760766851        0.7956282387
 C         -2.4456800590        3.1175326562        0.1899355881
 C         -1.8138162843        3.5687404442       -0.9597695263
 C         -2.0664122510        4.8644736632       -1.3684025132
 C         -2.9318442701        5.6952255431       -0.6604504433
 C         -3.5820018033        5.2438143238        0.4705585215
 C         -3.3444511112        3.9450359201        0.9007201305
 C         -3.8494435597        3.1585849772        1.9914395682
 C         -4.7339918047        3.4211166235        3.0291403801
 C         -4.9907536399        2.4235596474        3.9484447671
 C         -4.3649327911        1.1828729369        3.8523228553
 C         -3.4810321162        0.8995834774        2.8289208714
 C         -3.2397568294        1.8877127994        1.8863009211
 C         -2.2270050578       -0.4516953242        0.1648562249
 C         -1.4671785123       -1.5184552025       -0.3018665345
 N         -2.0594506248       -2.7676619934       -0.5141330921
 C         -2.8371055908       -3.4676945527        0.3876916485
 C         -3.1833051069       -3.1484773564        1.6919617878
 C         -3.9575499894       -4.0506616149        2.3958862379
 C         -4.3733409654       -5.2511473618        1.8249896058
 C         -4.0105173343       -5.5870834278        0.5359519007
 C         -3.2333658777       -4.6950066946       -0.1908939651
 C         -2.6666142563       -4.7266018845       -1.5104299169
 C         -2.7164125705       -5.6465672842       -2.5494257040
 C         -2.0602670935       -5.3503030731       -3.7273310699
 C         -1.3758762917       -4.1470507907       -3.8828309062
 C         -1.3126210994       -3.2164495687       -2.8633502261
 C         -1.9468837639       -3.5205605770       -1.6676261193
 C         -0.1166804664       -1.3407922750       -0.5834713370
 C          2.4838781268       -0.5064826239       -1.8244727514
 C          3.8217270811       -0.3499361392       -2.0893246134
 C          4.6472330669        0.3749807287       -1.2246025043
 H          8.6838457419        1.0735496174       -1.4557728455
 H          9.9378263875        2.3498976138        0.2707466705
 H          8.7294339214        3.2736361552        2.2164636872
 H          6.2882901033        2.9257387226        2.4385645186
 H          2.3167257275        1.2465015531        1.0741717459
 H          0.1792902672        1.9261250941        0.2366101806
 H         -1.1554941781        2.9280273761       -1.5270287602
 H         -1.5844569668        5.2394425690       -2.2590922667
 H         -3.1008394694        6.7022242671       -1.0110457264
 H         -4.2657600834        5.8814115296        1.0099949610
 H         -5.2049657997        4.3886815141        3.1137088766
 H         -5.6774560672        2.6062787759        4.7612011758
 H         -4.5712989371        0.4272674091        4.5957519689
 H         -2.9834720350       -0.0563367226        2.7766180684
 H         -3.2831633594       -0.5766974174        0.3457056003
 H         -2.8474987234       -2.2319862040        2.1513769080
 H         -4.2422422668       -3.8215399331        3.4120861380
 H         -4.9792297154       -5.9296957438        2.4063433323
 H         -4.3176912688       -6.5251961721        0.0992530489
 H         -3.2621416898       -6.5707912791       -2.4350235272
 H         -2.0836286578       -6.0531604098       -4.5464249261
 H         -0.8870454561       -3.9348349049       -4.8221257147
 H         -0.7985561518       -2.2771522081       -3.0015919854
 H          0.4707499104       -2.1826019815       -0.9144203076
 H          1.8591699914       -1.0624469720       -2.5063972829
 H          4.2771103728       -0.7830519889       -2.9669086759
  73
       -119.41129474
 O          6.2392888454        2.6967680917       -2.0147600490
 C          5.8920408351        1.7953155715       -1.2687838342
 C          6.8358783519        1.0026674032       -0.4659488391
 C          8.2059495421        1.2788887861       -0.5054680784
 C          9.0944383723        0.5455188198        0.2462117411
 C          8.6282479822       -0.4872855734        1.0552579979
 C          7.2832321932       -0.7804062938        1.1105544775
 C          6.3785175215       -0.0365090145        0.3523431345
 O          5.0685621152       -0.3716876425        0.4578374209
 C          4.1492267329        0.3432843245       -0.2314943177
 C          2.8140198571       -0.0127807076       -0.0536772856
 C          1.8071251297        0.6870685282       -0.6982532480
 C          0.3986519759        0.3401307674       -0.4581636874
 C         -0.5392846782        1.3489883668       -0.2706497328
 C         -1.8654379182        1.0354253218        0.0086200342
 N         -2.7804586119        2.0632574939        0.2575854435
 C         -4.0382941768        2.1952173590       -0.2989213317
 C         -4.6732296581        1.4115697200       -1.2506841560
 C         -5.9391038811        1.7853585012       -1.6591823937
 C         -6.5623830307        2.9201920904       -1.1460416131
 C         -5.9245622435        3.7218173820       -0.2205759587
 C         -4.6525665752        3.3639521188        0.2057917305
 C         -3.7138227727        3.9591092904        1.1154382124
 C         -3.7506701479        5.0931515056        1.9159538658
 C         -2.6592234330        5.3762501770        2.7122789655
 C         -1.5498065127        4.5343167025        2.7303735812
 C         -1.4905082976        3.4004351282        1.9426289550
 C         -2.5718354176        3.1265618922        1.1173615794
 C         -2.2654758561       -0.2950180779        0.0729070461
 C         -1.3357890376       -1.3067335993       -0.1440358167
 N         -1.7285073080       -2.6474910731       -0.0721443695
 C         -1.0933587035       -3.6324738540        0.6608481242
 C          0.0047920558       -3.5401052640        1.5035749404
 C          0.4272742390       -4.6897913667        2.1433028318
 C         -0.2283291988       -5.9054226735        1.9628966105
 C         -1.3396434916       -5.9976927686        1.1491576231
 C         -1.7822348175       -4.8554651436        0.4952366847
 C         -2.8849825641       -4.5877360858       -0.3852123041
 C         -3.8918246890       -5.3793014966       -0.9216838171
 C         -4.8064371674       -4.7976721010       -1.7767681127
 C         -4.7136713119       -3.4494660940       -2.1140192471
 C         -3.7191687605       -2.6437494810       -1.5937464861
 C         -2.8157975358       -3.2138027285       -0.7094561997
 C         -0.0063178752       -0.9884674705       -0.4022110072
 C          2.1465704653        1.7449853248       -1.5510234798
 C          3.4625535895        2.0868351711       -1.7411304711
 C          4.4878178950        1.4026967765       -1.0810220057
 H          8.5330754813        2.0856495977       -1.1438895148
 H         10.1494708060        0.7683419244        0.2105060634
 H          9.3237818410       -1.0636882753        1.6461939651
 H          6.9032495185       -1.5756917586        1.7324336780
 H          2.5857121465       -0.8240305959        0.6197331719
 H         -0.2384169394        2.3830697302       -0.3245646913
 H         -4.1917707853        0.5439884740       -1.6735139324
 H         -6.4541375976        1.1859972087       -2.3952095751
 H         -7.5534367915        3.1781776370       -1.4878035068
 H         -6.3987402346        4.6119975772        0.1638927408
 H         -4.6190180252        5.7342208602        1.9149691279
 H         -2.6649043353        6.2551558326        3.3391034068
 H         -0.7174048564        4.7703180640        3.3766388376
 H         -0.6328920992        2.7459331799        1.9825472437
 H         -3.2843885542       -0.5428150814        0.3257019331
 H          0.5061650703       -2.5985542354        1.6695108736
 H          1.2828302212       -4.6436547818        2.8007089382
 H          0.1349986511       -6.7823331769        2.4772241679
 H         -1.8600764911       -6.9349382843        1.0236593727
 H         -3.9514590879       -6.4284946923       -0.6751552606
 H         -5.5997312238       -5.3942836331       -2.2013010194
 H         -5.4314033956       -3.0251528435       -2.8003428540
 H         -3.6409098105       -1.6072724415       -1.8821069525
 H          0.7027862057       -1.7783614327       -0.5928774674
 H          1.3668388800        2.2784155974       -2.0723923518
 H          3.7454900332        2.8954261296       -2.3978053287
  73
       -119.41118769
 O          6.2347057312        2.6830623405       -2.0485138802
 C          5.8875180915        1.7940356702       -1.2877535929
 C          6.8291793327        1.0296806909       -0.4555742141
 C          8.1962892886        1.3214288980       -0.4819679599
 C          9.0825738512        0.6150154602        0.2975869905
 C          8.6170753041       -0.4053313857        1.1227108130
 C          7.2749701886       -0.7134065546        1.1655390011
 C          6.3724823201        0.0029485893        0.3786157920
 O          5.0651683757       -0.3452993540        0.4732542212
 C          4.1469033292        0.3468329997       -0.2403560427
 C          2.8129006750       -0.0168151598       -0.0683690012
 C          1.8069484959        0.6648571154       -0.7331714728
 C          0.3985023903        0.3194352304       -0.4895862226
 C         -0.5343819686        1.3321696486       -0.2987689089
 C         -1.8589041774        1.0240520988       -0.0061659238
 N         -2.7657509266        2.0561325699        0.2544694093
 C         -4.0310215480        2.1946030136       -0.2832450141
 C         -4.6833396783        1.4153668064       -1.2268347104
 C         -5.9534892156        1.7954626883       -1.6158799254
 C         -6.5641623474        2.9320709665       -1.0915861507
 C         -5.9091690035        3.7293220587       -0.1743379357
 C         -4.6326177065        3.3651165403        0.2325517943
 C         -3.6781934979        3.9542986120        1.1296614180
 C         -3.6984301645        5.0867038969        1.9331180852
 C         -2.5945535211        5.3631144857        2.7145275814
 C         -1.4888181079        4.5162135962        2.7149318559
 C         -1.4459727006        3.3837374246        1.9240907053
 C         -2.5401263909        3.1166083915        1.1136118235
 C         -2.2631258654       -0.3048074391        0.0628920024
 C         -1.3391303008       -1.3203930167       -0.1606656425
 N         -1.7379020612       -2.6591617813       -0.0852627715
 C         -1.1029421184       -3.6474947981        0.6434361890
 C          0.0028341541       -3.5615509999        1.4768180534
 C          0.4232849314       -4.7133983998        2.1140381196
 C         -0.2416221872       -5.9249341145        1.9402976138
 C         -1.3602516753       -6.0107608109        1.1359604355
 C         -1.8010049110       -4.8662456462        0.4848338611
 C         -2.9097715496       -4.5921603100       -0.3860294307
 C         -3.9266628898       -5.3776647052       -0.9124284725
 C         -4.8450667880       -4.7910041090       -1.7599532234
 C         -4.7463603834       -3.4438376737       -2.0996478407
 C         -3.7419835495       -2.6441156290       -1.5892918243
 C         -2.8344315424       -3.2190682674       -0.7124567822
 C         -0.0099374695       -1.0076614112       -0.4276255940
 C          2.1456038778        1.7082844265       -1.6037196075
 C          3.4607674201        2.0553247019       -1.7901775859
 C          4.4849598751        1.3923207961       -1.1071888168
 H          8.5230564434        2.1175888659       -1.1337158191
 H         10.1353894629        0.8496925266        0.2716329405
 H          9.3108031862       -0.9600362149        1.7361255644
 H          6.8955559760       -1.4995714800        1.7993386607
 H          2.5838816076       -0.8169169415        0.6181018345
 H         -0.2297099860        2.3648286880       -0.3584305180
 H         -4.2122226964        0.5460949693       -1.6577850631
 H         -6.4821049826        1.1995598067       -2.3450053857
 H         -7.5589569937        3.1950457568       -1.4182525065
 H         -6.3736780026        4.6208941288        0.2186472468
 H         -4.5638143264        5.7316714467        1.9459835220
 H         -2.5872144948        6.2407582404        3.3431441594
 H         -0.6465862695        4.7464916424        3.3504252604
 H         -0.5909047892        2.7252971169        1.9505785301
 H         -3.2805396348       -0.5487098288        0.3253952749
 H          0.5114468351       -2.6230995475        1.6380395398
 H          1.2842271826       -4.6720368741        2.7646867176
 H          0.1198236275       -6.8035062081        2.4531155326
 H         -1.8881029434       -6.9446315330        1.0161346110
 H         -3.9908479707       -6.4262150552       -0.6643204100
 H         -5.6461512371       -5.3828072613       -2.1765392837
 H         -5.4675520396       -3.0155605956       -2.7798564958
 H         -3.6595000358       -1.6084755959       -1.8797169778
 H          0.6960988755       -1.8000021502       -0.6198646353
 H          1.3657864995        2.2265164212       -2.1402236134
 H          3.7437690868        2.8523348226       -2.4608696923
  73
       -119.41100632
 O          6.8440192038       -0.1731929922       -1.8749685694
 C          6.2129976591        0.3911037038       -0.9954488305
 C          6.8360818459        1.2583621733        0.0161288399
 C          8.2171610255        1.4761649883        0.0095627280
 C          8.8074134848        2.2853150489        0.9526091941
 C          8.0238022451        2.8965422615        1.9277719740
 C          6.6608021486        2.6978934659        1.9560027617
 C          6.0584864752        1.8778652910        1.0011019362
 O          4.7136765984        1.7246855518        1.0851577918
 C          4.0835142762        0.9364617718        0.1836724223
 C          2.7030390786        0.8065166180        0.3200097132
 C          1.9807478759        0.0094183483       -0.5532274494
 C          0.5267914282       -0.1389749899       -0.3903382959
 C         -0.2608651382        0.9562783768       -0.0522521586
 C         -1.6350814171        0.8114431274        0.1045000238
 N         -2.4242991036        1.9176510190        0.4351643241
 C         -2.4031649308        3.1455002060       -0.1988561116
 C         -1.6665618155        3.5615319363       -1.2984785276
 C         -1.8621858419        4.8511111825       -1.7554479139
 C         -2.7732696136        5.7096125961       -1.1446735479
 C         -3.5263632123        5.2933789733       -0.0651686329
 C         -3.3472889476        4.0019059362        0.4121858049
 C         -3.9579204974        3.2483332264        1.4716143183
 C         -4.9246076881        3.5497474542        2.4216318009
 C         -5.2769683366        2.5788063258        3.3374682848
 C         -4.6669699123        1.3267113890        3.3234816532
 C         -3.7026249594        1.0035634418        2.3878076214
 C         -3.3630678355        1.9663764471        1.4485435209
 C         -2.2259162287       -0.4374330054       -0.0532569226
 C         -1.4409353715       -1.5366793106       -0.3825370829
 N         -2.0296590535       -2.7955695851       -0.5353182182
 C         -1.5792334108       -3.9709205051        0.0363414505
 C         -0.5157224358       -4.1846357690        0.9014658951
 C         -0.2993718980       -5.4730067744        1.3525853737
 C         -1.1226480707       -6.5276861780        0.9655519902
 C         -2.1987122564       -6.3165056034        0.1269104688
 C         -2.4355841530       -5.0305223357       -0.3402586701
 C         -3.4461873523       -4.4589399552       -1.1861237775
 C         -4.5335480930       -4.9919500262       -1.8655065530
 C         -5.3139883704       -4.1479142168       -2.6299764075
 C         -5.0105888418       -2.7925046245       -2.7352963569
 C         -3.9336188275       -2.2394091085       -2.0687483590
 C         -3.1614939483       -3.0774019950       -1.2771531223
 C         -0.0705171430       -1.3828559627       -0.5636487289
 C          2.6542270280       -0.6597415021       -1.5833294366
 C          4.0136608779       -0.5283105316       -1.7234705207
 C          4.7560051804        0.2660081211       -0.8443977602
 H          8.7952244696        0.9846348803       -0.7586229167
 H          9.8742794208        2.4456539327        0.9393542374
 H          8.4852065446        3.5303193796        2.6696340832
 H          6.0368834234        3.1641242369        2.7025815335
 H          2.2183091778        1.3218282770        1.1344790691
 H          0.1899801533        1.9263780220        0.0841205944
 H         -0.9727365346        2.8988864823       -1.7935600083
 H         -1.2985882769        5.1986358474       -2.6083360859
 H         -2.8954499512        6.7104488019       -1.5303897605
 H         -4.2454486939        5.9520678893        0.3977392946
 H         -5.3854369477        4.5255758677        2.4417205292
 H         -6.0301906787        2.7904833024        4.0815981847
 H         -4.9513557844        0.5915481823        4.0617419487
 H         -3.2220390505        0.0369923542        2.4018559218
 H         -3.2892946248       -0.5529241622        0.0826823428
 H          0.1178983731       -3.3727332119        1.2254242205
 H          0.5251414049       -5.6646041227        2.0232334299
 H         -0.9174742779       -7.5205109071        1.3361861347
 H         -2.8467645496       -7.1300911156       -0.1611992889
 H         -4.7562394315       -6.0459774353       -1.7982480707
 H         -6.1657851836       -4.5410258535       -3.1643182261
 H         -5.6290932901       -2.1587943983       -3.3533663088
 H         -3.6977682774       -1.1914056297       -2.1759832824
 H          0.5287337035       -2.2389323170       -0.8295592791
 H          2.0947510522       -1.2649340191       -2.2798336358
 H          4.5498339639       -1.0328946021       -2.5128038593
