  73
       -119.41151343
 O          6.3475877638        2.8683143713       -1.2988181175
 C          5.9695250780        1.8623320669       -0.7201795479
 C          6.8848307316        0.9158210065       -0.0643187079
 C          8.2651759060        1.1374467054       -0.0814259964
 C          9.1277618171        0.2563499970        0.5284279802
 C          8.6243102944       -0.8715198002        1.1713462270
 C          7.2681020120       -1.1121935663        1.2030188868
 C          6.3900471578       -0.2204048035        0.5860776093
 O          5.0680608678       -0.5152081588        0.6548048436
 C          4.1767963320        0.3185709499        0.0701315185
 C          2.8314401581       -0.0280313998        0.1740491748
 C          1.8511193452        0.7743228604       -0.3872749571
 C          0.4320963962        0.4131070181       -0.2596933410
 C         -0.5207413312        1.3996618002       -0.0302027899
 C         -1.8647648000        1.0648637550        0.0949728340
 N         -2.8128412464        2.0677999167        0.3188333454
 C         -3.7870413028        2.0659019993        1.2986241943
 C         -4.0393894488        1.1328787232        2.2937890088
 C         -5.0705973304        1.3936978112        3.1758490783
 C         -5.8314107654        2.5567898551        3.0824792184
 C         -5.5691089609        3.5003567279        2.1094681505
 C         -4.5380767016        3.2602755682        1.2108747868
 C         -3.9884868164        4.0102540496        0.1158126485
 C         -4.3090131804        5.2314721018       -0.4623327871
 C         -3.5759956570        5.6610143921       -1.5505626206
 C         -2.5459876810        4.8821855578       -2.0732483820
 C         -2.2083126050        3.6642802289       -1.5145526775
 C         -2.9238088253        3.2399652199       -0.4041827749
 C         -2.2628500824       -0.2637443556        0.0032900837
 C         -1.3133428991       -1.2537631962       -0.2256252950
 N         -1.7109023111       -2.5904018454       -0.3265739329
 C         -1.1302085869       -3.6563179879        0.3340805945
 C         -0.0927468833       -3.6678733077        1.2550432471
 C          0.2802340642       -4.8850624512        1.7928054736
 C         -0.3659018457       -6.0663246445        1.4361009667
 C         -1.4172701953       -6.0576115039        0.5413920597
 C         -1.8090452230       -4.8463885221       -0.0131628736
 C         -2.8458283056       -4.4717898782       -0.9341677937
 C         -3.8122683617       -5.1900966095       -1.6257240003
 C         -4.6616518467       -4.5086868039       -2.4743036112
 C         -4.5447404245       -3.1318971806       -2.6501174834
 C         -3.5912525990       -2.3958124347       -1.9727117111
 C         -2.7524746487       -3.0710162868       -1.0978846217
 C          0.0283704463       -0.9140565134       -0.3622233310
 C          2.2302895347        1.9373943601       -1.0706038219
 C          3.5554691133        2.2784070755       -1.1793050472
 C          4.5538951016        1.4822750000       -0.6098174979
 H          8.6215702059        2.0213790060       -0.5887010168
 H         10.1913668201        0.4372808405        0.5101111687
 H          9.2992759542       -1.5633850827        1.6512345773
 H          6.8593385780       -1.9793619873        1.6972520965
 H          2.5757510947       -0.9220238032        0.7209231737
 H         -0.2184891005        2.4277999070        0.0906230592
 H         -3.4438839212        0.2374173213        2.3885593696
 H         -5.2890038140        0.6806527065        3.9569576310
 H         -6.6307011783        2.7223281073        3.7892951724
 H         -6.1474526382        4.4096562399        2.0471253862
 H         -5.1189782880        5.8264352447       -0.0684549290
 H         -3.8071484412        6.6084766451       -2.0135571332
 H         -2.0019647450        5.2356618661       -2.9367217701
 H         -1.4232978328        3.0575642517       -1.9407233945
 H         -3.3036949785       -0.5256279131        0.1079944916
 H          0.3991775559       -2.7553510898        1.5566592627
 H          1.0877885088       -4.9201894319        2.5089561453
 H         -0.0432614039       -6.9977866652        1.8763518092
 H         -1.9305542569       -6.9700175564        0.2785427644
 H         -3.8904763802       -6.2595802152       -1.5024628723
 H         -5.4220145599       -5.0473307033       -3.0195078790
 H         -5.2114200838       -2.6277718481       -3.3339266211
 H         -3.4975794197       -1.3324870002       -2.1338086204
 H          0.7501215052       -1.6835903286       -0.5855212213
 H          1.4749030351        2.5561431077       -1.5294595108
 H          3.8669060318        3.1675854837       -1.7057701157
