  67
       -109.35781751
 C         -3.1491306262        4.4420157319        1.3372731768
 C         -4.4052814414        3.8717861907        1.0902323941
 C         -4.4909678630        2.5669933856        0.6378838248
 C         -3.3485104824        1.8086746692        0.4401949659
 N         -3.4471788567        0.5240167528       -0.1014682486
 C         -4.1720307734       -0.5241337688        0.4218745127
 C         -4.9864971630       -0.5560107864        1.5452048457
 C         -5.5793089836       -1.7605451353        1.8766678605
 C         -5.3633959422       -2.9083402337        1.1180338153
 C         -4.5350438075       -2.8870460179        0.0094467173
 C         -3.9319319557       -1.6903109381       -0.3446529216
 C         -3.0153822174       -1.3100352841       -1.3871990726
 C         -2.4020523581       -1.9989529370       -2.4219678672
 C         -1.5500116714       -1.3063500267       -3.2637108812
 C         -1.3260205519        0.0586533615       -3.0954349404
 C         -1.9243367762        0.7666178161       -2.0711357958
 C         -2.7500686971        0.0671830408       -1.1998651857
 C         -2.0675194619        2.3526633737        0.7691618805
 C         -0.8974287209        1.5758730131        0.7762526668
 N          0.3563005438        2.0250689885        0.8933409891
 N          1.1665494741        1.0210819547        0.7731844379
 C          0.4470002138       -0.0901977349        0.5901371473
 C          0.8879743801       -1.4051073896        0.3854383608
 C         -0.0384153739       -2.4772691580        0.4124030154
 C          0.3905132486       -3.7758214602        0.3992878784
 C          1.7578125646       -4.0749044336        0.3493179233
 C          2.6825093923       -3.0473344905        0.2670172802
 C          2.2748124176       -1.7238809793        0.2461163744
 N          3.2123864869       -0.7090145023        0.0580856488
 C          4.3355041356       -0.4958723131        0.8206938717
 C          4.7704929220       -1.1721530524        1.9535554977
 C          5.9349641767       -0.7350166035        2.5566352370
 C          6.6478710205        0.3506212390        2.0535580865
 C          6.2084014916        1.0400144008        0.9352104110
 C          5.0454167377        0.6192380378        0.3121813168
 C          4.3020439120        1.0845077656       -0.8302764703
 C          4.5008912100        2.1026786277       -1.7486493840
 C          3.5836647372        2.2556173666       -2.7740311099
 C          2.4935797684        1.3983011457       -2.8960517166
 C          2.2761526293        0.3743307395       -1.9933447800
 C          3.1766028755        0.2372529057       -0.9461225701
 O         -0.8990919239        0.2078828279        0.6159999292
 C         -2.0069051941        3.7073152270        1.1766836854
 H         -3.0883694048        5.4698767164        1.6616161530
 H         -5.3015362133        4.4574838893        1.2197273934
 H         -5.4512858577        2.1374591627        0.3901213395
 H         -5.1421679409        0.3274331793        2.1455234595
 H         -6.2186874727       -1.8132847591        2.7450080700
 H         -5.8442654457       -3.8304570267        1.4079162598
 H         -4.3561669034       -3.7825963268       -0.5663572107
 H         -2.5841568893       -3.0533997223       -2.5641389735
 H         -1.0540637059       -1.8269074345       -4.0693528947
 H         -0.6716758744        0.5755796178       -3.7814391377
 H         -1.7427850522        1.8232751819       -1.9420626571
 H         -1.0896721985       -2.2403392384        0.4679806208
 H         -0.3291415421       -4.5801275291        0.4324500627
 H          2.0887228279       -5.1011933863        0.3390546170
 H          3.7354945640       -3.2697000340        0.1689999948
 H          4.2106015131       -2.0034474869        2.3541449663
 H          6.2972598735       -1.2425745983        3.4380369908
 H          7.5534216492        0.6628981314        2.5516983940
 H          6.7561836660        1.8910176260        0.5601094401
 H          5.3536818393        2.7592308549       -1.6662893851
 H          3.7160457944        3.0470522024       -3.4965548779
 H          1.8051776038        1.5362315108       -3.7166358890
 H          1.4307613524       -0.2899556907       -2.0952022417
 H         -1.0314816315        4.1209973869        1.3766023781
