42
 energy: -75.101498259911 gnorm: 0.000012778585 xtb: 6.7.1 (edcfbbe)
C           -5.95991897676635        0.41413799782216       -0.00539595638152
C           -5.69693461734525        1.79851225934205       -0.00859464499649
C           -4.41463969146665        2.27048421446677       -0.00842496716606
C           -3.33577824747295        1.36027467843919       -0.00525804648326
N           -2.07370429130380        1.81611725872107       -0.00498497703161
C           -1.09671751490593        0.93477262552160       -0.00303925570198
C           -1.36322658717880       -0.46863823350110       -0.00153501047107
N           -2.59536640392002       -0.93025709468311       -0.00076358755619
C           -3.60244699792981       -0.04346062255826       -0.00245809264196
C           -4.93983924405784       -0.49503159195525       -0.00222170357339
C           -0.26151252099960       -1.41774638942628       -0.00181180895870
N           -0.53575095225905       -2.70464375486299       -0.00297511550870
C            0.49030093005513       -3.56938213608111       -0.00460353683106
C            0.24158904272787       -4.95882326246880       -0.00688934668865
C            1.29169825440730       -5.83308792564975       -0.00928113557552
C            2.62196066874242       -5.36820000694227       -0.00924283425408
C            2.89910071217643       -4.03016107159261       -0.00684976358588
C            1.83913935646664       -3.09800084917456       -0.00460818999873
N            2.10315400475188       -1.78241946576641       -0.00307989082872
C            1.08703355311095       -0.94649668586764       -0.00191484199293
C            1.35825405555897        0.48211404728732       -0.00177191871558
N            2.60993454077525        0.88785063454382       -0.00137496368781
C            2.84573443299688        2.20883970320332       -0.00279750968323
C            4.17331815548089        2.68830418713495       -0.00289417882331
C            4.40550247104803        4.03483419307823       -0.00523736222988
C            3.33785059331641        4.95453758037959       -0.00740261976170
C            2.04055545450168        4.52542194932196       -0.00705523750232
C            1.76315151470301        3.14138781910229       -0.00474467438059
N            0.49171357512836        2.71239219614244       -0.00445810304229
C            0.27597807735678        1.41440698196675       -0.00298071026404
H           -6.98505451146593        0.07564662852846       -0.00551152068973
H           -6.52625251559807        2.48964652588447       -0.01119698010697
H           -4.18795689781909        3.32510423145587       -0.01071995787092
H           -5.11532385256509       -1.55939059329756        0.00014582404171
H           -0.78512609206826       -5.28970474739613       -0.00691205802548
H            1.10826424059986       -6.89695895580282       -0.01130123007829
H            3.42805192243302       -6.08633564851342       -0.01116535981702
H            3.90853704683552       -3.64973860710549       -0.00678740459741
H            4.97346359286678        1.96482145745439       -0.00133691933918
H            5.41858682526216        4.40781895155143       -0.00554746407874
H            3.55696164180515        6.01165149858164       -0.00932254866829
H            1.20629113302064        5.20928807524645       -0.00860600276899
