42
 energy: -75.101486440969 gnorm: 0.000015476133 xtb: 6.7.1 (edcfbbe)
C           -5.80776436643002       -1.40137894838285        0.00002215811197
C           -5.31795629797909       -2.72266345679755        0.00002466817589
C           -3.97495070610786       -2.97455255520427        0.00002101231435
C           -3.06285514373688       -1.89726240571386        0.00001464995544
N           -1.74250452509738       -2.13646859234613        0.00001080419297
C           -0.92591530213802       -1.10473246900839        0.00000509333402
C           -1.42250581996021        0.23471327275905        0.00000316329858
N           -2.71434469258971        0.48464782806661        0.00000660053824
C           -3.55956901510023       -0.55752877612827        0.00001225283027
C           -4.95344490101751       -0.33499117444512        0.00001606716346
C           -0.49437151808206        1.35417071165315       -0.00000212501575
N           -0.97913543566309        2.57740568763048       -0.00000255558827
C           -0.11146103810425        3.60101702953876       -0.00000655848629
C           -0.58789565255394        4.92975980988844       -0.00000693128721
C            0.30213359161170        5.96659736611430       -0.00001063853994
C            1.69121824586807        5.72959273834066       -0.00001416591024
C            2.18702032074129        4.45633609210150       -0.00001387280448
C            1.29701997042101        3.36078082705259       -0.00001012855111
N            1.77656676692525        2.10757712789165       -0.00000992404774
C            0.91379333785675        1.11415450195067       -0.00000608917840
C            1.41923680100628       -0.24922586708664       -0.00000553564409
N            2.72106948563433       -0.44032666454093       -0.00001014215492
C            3.17406975944321       -1.70341338722180       -0.00000896950529
C            4.56308552310633       -1.95471967318626       -0.00001377551351
C            5.01654179604803       -3.24370583214301       -0.00001247951213
C            4.11718487954680       -4.32855706118028       -0.00000632286628
C            2.76653515691268       -4.12175352275808       -0.00000137793171
C            2.26214611096871       -2.80343200201793       -0.00000270109778
N            0.93692183886542       -2.59269332307550        0.00000186649354
C            0.50756610978779       -1.34892335882913        0.00000038506391
H           -6.87490241883544       -1.23805601179868        0.00002542322419
H           -6.02098470791059       -3.54194823162014        0.00002964970632
H           -3.57561977097120       -3.97663340967153        0.00002281982885
H           -5.30362296992050        0.68531208460679        0.00001416485131
H           -1.65533330242401        5.08542423830721       -0.00000426062577
H           -0.05542895348883        6.98522146669915       -0.00001078859598
H            2.36665092309867        6.57175833295962       -0.00001672005318
H            3.24560378664063        4.24883140952355       -0.00001647083078
H            5.23127773020624       -1.10785055408522       -0.00001834971237
H            6.07759445331578       -3.44285361243378       -0.00001607314550
H            4.50923501355683       -5.33441984287321       -0.00000533497662
H            2.05809593656120       -4.93520879253736        0.00000351248679
