  42
        -75.06223134
 C         -5.9577596484        0.4135236909       -0.0166023681
 C         -5.6950896939        1.7974216635       -0.0231664960
 C         -4.4131346821        2.2688750639       -0.0149612663
 C         -3.3340608273        1.3594588791       -0.0006883690
 N         -2.0741234481        1.8171788584        0.0048887963
 C         -1.0979543548        0.9362529047        0.0137197830
 C         -1.3646559922       -0.4690333046        0.0184096712
 N         -2.5956655247       -0.9312173858        0.0156927254
 C         -3.6004230759       -0.0438153140        0.0055717286
 C         -4.9376595532       -0.4946526395       -0.0020909593
 C         -0.2619383261       -1.4190695439        0.0192207500
 N         -0.5367635057       -2.7049151791        0.0162265479
 C          0.4897182766       -3.5671603260        0.0059574021
 C          0.2417775098       -4.9564018978       -0.0032005694
 C          1.2910477802       -5.8307525130       -0.0202260692
 C          2.6208036732       -5.3661142390       -0.0276683679
 C          2.8972783857       -4.0284134290       -0.0170555666
 C          1.8381031407       -3.0959792678       -0.0002289329
 N          2.1042426896       -1.7821190728        0.0074718868
 C          1.0884140467       -0.9472688552        0.0163270299
 C          1.3597750355        0.4827354752        0.0166149723
 N          2.6108257403        0.8875609600        0.0144316744
 C          2.8443687545        2.2076086997        0.0061339061
 C          4.1714919564        2.6874256882       -0.0003466976
 C          4.4042481714        4.0332600471       -0.0139004889
 C          3.3370673096        4.9526414170       -0.0203698690
 C          2.0404638415        4.5232868772       -0.0124756428
 C          1.7622211982        3.1398329287        0.0008182911
 N          0.4912715888        2.7135170226        0.0064163887
 C          0.2760952489        1.4163420664        0.0136859493
 H         -6.9835858515        0.0755209339       -0.0239948909
 H         -6.5258557381        2.4875516336       -0.0353668330
 H         -4.1874429942        3.3235677741       -0.0199820858
 H         -5.1142576611       -1.5586655288        0.0029490449
 H         -0.7843497292       -5.2885199101        0.0023435188
 H          1.1086623182       -6.8953322997       -0.0290986106
 H          3.4263404854       -6.0854456475       -0.0421426567
 H          3.9069992635       -3.6491235293       -0.0209446664
 H          4.9720538870        1.9646526737        0.0046517453
 H          5.4173750415        4.4075798979       -0.0202717421
 H          3.5574197978        6.0099393729       -0.0320821990
 H          1.2072321252        5.2081537988       -0.0175780691
