  49
  -80.7127130800000       0.108071618618522      !
 C          4.9530413138        1.1954725077        2.1793173783
 C          4.8473766266        0.8258552248        0.6993877954
 C          4.9479201849        2.0766447510       -0.1830324220
 C          5.9676105377       -0.1500445281        0.3310464536
 N          3.5647497773        0.1718916322        0.4566432123
 C          2.3559471045        0.8101185099        0.7458693269
 O          2.2744402968        1.8622062978        1.4035239826
 C          1.2656423963        0.1075655001        0.1653148528
 C         -0.0965131309        0.4215739958        0.2959755022
 C         -1.0364836137       -0.4061609806       -0.2768901741
 N         -2.3908506253       -0.1187674972       -0.1336514311
 C         -2.9773438452        1.1161035718       -0.3227909998
 C         -2.4058332604        2.3079266333       -0.7522321598
 C         -3.2354234542        3.4074785577       -0.8884892805
 C         -4.5980506497        3.3251427804       -0.6158918479
 C         -5.1795402452        2.1302512251       -0.2164660204
 C         -4.3692132319        1.0172617195       -0.0738102738
 C         -4.6207504785       -0.3548183052        0.2904637953
 C         -5.7588674169       -1.0528908632        0.6540722105
 C         -5.6360276514       -2.3969843216        0.9770329163
 C         -4.3981424552       -3.0333681770        0.9551003129
 C         -3.2460185963       -2.3546827216        0.5977571238
 C         -3.3679046964       -1.0164367116        0.2424537877
 C         -0.6507947453       -1.5669857149       -1.0246843427
 C          0.6953599484       -1.8556845938       -1.1855953998
 C          1.6332332451       -1.0341346281       -0.6163196084
 S          3.3883458072       -1.0759048970       -0.6915932562
 O          3.9377932735       -2.2941589674       -0.1660452056
 O          3.8955609010       -0.6546808353       -1.9713659270
 H          4.8878578619        0.3019838395        2.7951659240
 H          4.1370263621        1.8634506847        2.4476942217
 H          5.8991639369        1.6949280943        2.3684340313
 H          5.9174888824        2.5500104070       -0.0546085587
 H          4.1679378860        2.7811779551        0.0965398805
 H          4.8206960746        1.7970625827       -1.2264936850
 H          6.9286014562        0.3018082601        0.5649904871
 H          5.9312573943       -0.3841386630       -0.7285990129
 H          5.8584759671       -1.0756748244        0.8894827601
 H         -0.3894092821        1.2652277660        0.9012295117
 H         -1.3538630218        2.3721350371       -0.9822570915
 H         -2.8161472155        4.3459649296       -1.2164766325
 H         -5.2133110244        4.2046226233       -0.7292733265
 H         -6.2398026802        2.0674971395       -0.0260758197
 H         -6.7186104764       -0.5609564289        0.6898536425
 H         -6.5127319836       -2.9573997234        1.2636907367
 H         -4.3325411546       -4.0740433132        1.2323144360
 H         -2.2836676619       -2.8424937348        0.6108310634
 H         -1.4077422085       -2.1438310320       -1.5286619887
 H          1.0107292619       -2.7053913518       -1.7710229575
  49
  -80.7127113300000       0.107871672359172      !
 C          4.9420683789        0.8624488768        2.3513930609
 C          4.8114139886       -0.1678305977        1.2285799941
 C          5.9736745585       -0.0094702729        0.2454337558
 C          4.8118216342       -1.5932238573        1.7957910014
 N          3.5612513628        0.0606161696        0.5096300082
 C          2.3274492186        0.0206312758        1.1634072460
 O          2.2061598962       -0.0128572233        2.4002961411
 C          1.2617685554       -0.0028071171        0.2232150400
 C         -0.1115069230        0.0149363109        0.5139714097
 C         -1.0187006280        0.0636602506       -0.5212980220
 N         -2.3823659160        0.1030306394       -0.2461770560
 C         -3.2915297070        0.9742393963       -0.8088979166
 C         -3.0775052206        2.0116998462       -1.7087634248
 C         -4.1747194284        2.7562489412       -2.1057017214
 C         -5.4479405193        2.4900133947       -1.6100253257
 C         -5.6624343939        1.4754328887       -0.6876877578
 C         -4.5805032786        0.7160463412       -0.2782264228
 C         -4.4239140639       -0.3690533488        0.6579631562
 C         -5.3046430798       -1.0641169092        1.4684784916
 C         -4.8088878560       -2.0971342976        2.2511178146
 C         -3.4620518752       -2.4470578235        2.2132777728
 C         -2.5632984227       -1.7666095397        1.4101330914
 C         -3.0484236107       -0.7111111886        0.6472922755
 C         -0.5887691168        0.0730424233       -1.8893123596
 C          0.7659598436        0.0162782565       -2.1765868240
 C          1.6709755290       -0.0353654542       -1.1484312390
 S          3.4216177689       -0.1836994641       -1.1712959610
 O          3.8589141823       -1.5096471051       -1.5224015231
 O          4.0609919808        0.8954261802       -1.8711519931
 H          4.0995224928        0.7675880626        3.0334963726
 H          4.9449118885        1.8684928792        1.9388354907
 H          5.8650076250        0.6957904921        2.9001404216
 H          6.9139717287       -0.1194338628        0.7800406399
 H          5.9381879836        0.9691408034       -0.2244631795
 H          5.9150823709       -0.7640005755       -0.5327779849
 H          5.7563159973       -1.7995322604        2.2918226536
 H          4.6676395131       -2.3074180600        0.9881703756
 H          4.0020409182       -1.6972438592        2.5142089195
 H         -0.4341393123        0.0612499310        1.5423884476
 H         -2.0871049247        2.2398291616       -2.0710973243
 H         -4.0375160166        3.5651015707       -2.8067107812
 H         -6.2801440717        3.0925796870       -1.9412874058
 H         -6.6491665267        1.2852431423       -0.2944753602
 H         -6.3533923807       -0.8107344240        1.4863720607
 H         -5.4798000614       -2.6482846852        2.8922309964
 H         -3.1101897748       -3.2672796666        2.8195454173
 H         -1.5239763346       -2.0529139312        1.3713059080
 H         -1.3261107425        0.0278613348       -2.6729324223
 H          1.1120761270       -0.0116092437       -3.1981392567
  49
  -80.7127090900000       0.107616280849336      !
 C          5.9646033685       -0.1594435248        0.3917797721
 C          4.8493130614        0.8484082326        0.6807358101
 C          4.9474898158        1.3216213875        2.1312897637
 C          4.9654949476        2.0323671226       -0.2876620606
 N          3.5640272643        0.1874249640        0.4737062669
 C          2.3563862355        0.8472529720        0.7171181681
 O          2.2760716327        1.9352747901        1.3138027153
 C          1.2663063956        0.1194458354        0.1680912388
 C         -0.0957327917        0.4448432142        0.2732470892
 C         -1.0352265300       -0.4082445388       -0.2619492509
 N         -2.3901078654       -0.1128712506       -0.1409440750
 C         -2.9766586833        1.1097936188       -0.3971891673
 C         -2.4037091904        2.2797165070       -0.8813145014
 C         -3.2343135612        3.3688033199       -1.0811577120
 C         -4.5992238486        3.2972231902       -0.8175449230
 C         -5.1818896909        2.1228327393       -0.3627756239
 C         -4.3705918209        1.0207817352       -0.1560455521
 C         -4.6234292290       -0.3316805024        0.2746083768
 C         -5.7640115931       -1.0130127784        0.6614015953
 C         -5.6424139109       -2.3391359777        1.0518664746
 C         -4.4033772130       -2.9731992981        1.0737356025
 C         -3.2488345144       -2.3108443183        0.6944161676
 C         -3.3692640464       -0.9922404327        0.2714812574
 C         -0.6493247507       -1.6067998982       -0.9474582833
 C          0.6965135802       -1.9097476476       -1.0822357107
 C          1.6337884386       -1.0639155548       -0.5489819245
 S          3.3888326870       -1.1238218583       -0.6011967316
 O          3.9199562939       -2.3141474681        0.0016005814
 O          3.9155309124       -0.7844609627       -1.8971992418
 H          5.9349208518       -0.4678626575       -0.6486443197
 H          5.8440939763       -1.0422877173        1.0132344924
 H          6.9270571739        0.3006957123        0.6008804414
 H          5.8988240753        1.8214879494        2.2926742199
 H          4.8655421648        0.4754404373        2.8094659041
 H          4.1378486371        2.0173050848        2.3439092839
 H          5.9367315551        2.5084863818       -0.1839748647
 H          4.1874113247        2.7594037842       -0.0667165376
 H          4.8461565821        1.6795600327       -1.3097460511
 H         -0.3891388406        1.3195852149        0.8323619049
 H         -1.3496519768        2.3353727479       -1.1039027343
 H         -2.8135894887        4.2905594385       -1.4521403800
 H         -5.2153161641        4.1680998682       -0.9815142089
 H         -6.2437726671        2.0668748939       -0.1792439799
 H         -6.7248094756       -0.5218501416        0.6631101613
 H         -6.5211203994       -2.8866618113        1.3567254160
 H         -4.3390447721       -3.9991643354        1.4018755391
 H         -2.2859758073       -2.7955411516        0.7409875150
 H         -1.4052469522       -2.2051088777       -1.4274409800
 H          1.0123035229       -2.7903085341       -1.6198092682
  49
  -80.7127066200000       0.107335367014156      !
 C          4.8059452172       -1.4055510615        1.9814920653
 C          4.8124310618       -0.0609958643        1.2434731796
 C          4.9497278299        1.0988422010        2.2302622232
 C          5.9737006883       -0.0322154600        0.2469718186
 N          3.5623332800        0.0839492256        0.5037665908
 C          2.3291138035        0.1298943363        1.1589771734
 O          2.2108438530        0.2433063210        2.3911771020
 C          1.2619045162        0.0037878481        0.2287558875
 C         -0.1112570972        0.0698660539        0.5143134853
 C         -1.0175321118        0.0119901434       -0.5210867730
 N         -2.3810596028        0.1005020442       -0.2554231754
 C         -3.2766789251        0.9166509867       -0.9137263465
 C         -3.0462653309        1.8462522914       -1.9210538826
 C         -4.1327628907        2.5548340754       -2.4039618728
 C         -5.4111515282        2.3593387092       -1.8892707520
 C         -5.6417362492        1.4554263467       -0.8617525196
 C         -4.5708493719        0.7333864921       -0.3651305305
 C         -4.4315910637       -0.2454934472        0.6842060649
 C         -5.3243593142       -0.8391234248        1.5594741652
 C         -4.8452807537       -1.7898226119        2.4493344543
 C         -3.5031231827       -2.1586939716        2.4559842226
 C         -2.5922609372       -1.5781805729        1.5905270084
 C         -3.0607660350       -0.6040464163        0.7172379366
 C         -0.5882302581       -0.1410117533       -1.8805690734
 C          0.7654421224       -0.2498483048       -2.1577229372
 C          1.6696597904       -0.1944004286       -1.1294508534
 S          3.4183418238       -0.3636408066       -1.1342213045
 O          3.8419143706       -1.7270378332       -1.3193540699
 O          4.0667664801        0.6148323587       -1.9617901244
 H          4.6598508798       -2.2126445761        1.2680625768
 H          3.9952169763       -1.4176471782        2.7060492026
 H          5.7487793384       -1.5526931586        2.5000133866
 H          5.8758105094        0.9993244009        2.7890032648
 H          4.1113726667        1.0904424208        2.9240250915
 H          4.9509774069        2.0462783660        1.6976273050
 H          6.9142187625       -0.0824332721        0.7902172031
 H          5.9438454778        0.8820006064       -0.3390433636
 H          5.9086756536       -0.8760155804       -0.4332002049
 H         -0.4337176718        0.2362043880        1.5303360993
 H         -2.0517172158        2.0209055210       -2.3012445212
 H         -3.9823973193        3.2818233755       -3.1870186133
 H         -6.2334963547        2.9342865303       -2.2862320324
 H         -6.6317328000        1.3228653157       -0.4538621541
 H         -6.3698530721       -0.5725828760        1.5444639510
 H         -5.5260366444       -2.2619243787        3.1410853941
 H         -3.1643838001       -2.9140145929        3.1480316109
 H         -1.5561306543       -1.8784212991        1.5886918277
 H         -1.3265952773       -0.2638912204       -2.6546902280
 H          1.1112290527       -0.3973626625       -3.1688698801
  49
  -80.7127011800000       0.106719257436130      !
 C          4.9631523657        2.0632043271       -0.1215079587
 C          4.8555457488        0.7830175422        0.7164102965
 C          5.9680654676       -0.1873154211        0.3113559503
 C          4.9677443030        1.0985429910        2.2080482699
 N          3.5684408803        0.1463871783        0.4521288722
 C          2.3630314794        0.7755860983        0.7763686099
 O          2.2879874397        1.7914376942        1.4895156668
 C          1.2681101991        0.1102967826        0.1617798808
 C         -0.0935540662        0.4174425510        0.3176471818
 C         -1.0368830753       -0.3806392110       -0.2902456688
 N         -2.3914528474       -0.1072577008       -0.1205383962
 C         -2.9893463532        1.1297215097       -0.2485169486
 C         -2.4302405477        2.3454078297       -0.6237225185
 C         -3.2704153322        3.4422546766       -0.7059986278
 C         -4.6311530661        3.3348117914       -0.4327200532
 C         -5.2000456529        2.1176267535       -0.0862232409
 C         -4.3790771019        1.0068336464        0.0017017971
 C         -4.6168322905       -0.3828826164        0.3031175653
 C         -5.7467763617       -1.1078987561        0.6383676795
 C         -5.6099304081       -2.4642794470        0.8979858730
 C         -4.3664015749       -3.0871967015        0.8414085750
 C         -3.2223837051       -2.3819403069        0.5107207566
 C         -3.3584974477       -1.0299227725        0.2185398977
 C         -0.6568093534       -1.4996385906       -1.1016195414
 C          0.6881461825       -1.7778860907       -1.2889577082
 C          1.6294904448       -0.9870378226       -0.6836092560
 S          3.3837210856       -1.0262035907       -0.7714110473
 O          3.9320629556       -2.2769933745       -0.3289871500
 O          3.8861791374       -0.5247765152       -2.0235900624
 H          4.1908449591        2.7643787559        0.1862021890
 H          4.8284215019        1.8211417590       -1.1732447149
 H          5.9375407122        2.5232856218        0.0184888276
 H          6.9325217055        0.2472857781        0.5627771211
 H          5.9307500065       -0.3803551776       -0.7562832517
 H          5.8512633891       -1.1327145999        0.8337189214
 H          5.9169961222        1.5865640693        2.4117764672
 H          4.9002305370        0.1839892260        2.7919327719
 H          4.1556668424        1.7602390696        2.5028062696
 H         -0.3825960136        1.2284204165        0.9677634642
 H         -1.3795261359        2.4299373478       -0.8527957930
 H         -2.8610778537        4.3989724018       -0.9910622142
 H         -5.2549384278        4.2128248136       -0.5031435559
 H         -6.2588893032        2.0363063059        0.1052219132
 H         -6.7109599642       -0.6275405379        0.7008359702
 H         -6.4801843810       -3.0457675612        1.1615898340
 H         -4.2899502734       -4.1392241581        1.0689874555
 H         -2.2554356951       -2.8604819167        0.4964099453
 H         -1.4178785029       -2.0502525039       -1.6282491992
 H          0.9995361277       -2.5949142773       -1.9210073286
  49
  -80.7127005200000       0.106644749811108      !
 C          5.9759093353       -0.0603085845        0.2576581552
 C          4.8121730274       -0.2030894935        1.2416756559
 C          4.7898451643       -1.6302162297        1.8038662488
 C          4.9612786660        0.8213869492        2.3670546977
 N          3.5653866538        0.0463105404        0.5238440123
 C          2.3305444135        0.0268762538        1.1777230388
 O          2.2090123584        0.0103520092        2.4149921825
 C          1.2645756910        0.0009292752        0.2380249471
 C         -0.1092130986        0.0335431622        0.5277098137
 C         -1.0151340680        0.0706566618       -0.5089514238
 N         -2.3797586570        0.1253750173       -0.2403129056
 C         -3.2783267424        0.9888826221       -0.8309877229
 C         -3.0483425779        2.0095718806       -1.7459952238
 C         -4.1385868921        2.7451130491       -2.1773282828
 C         -5.4204869900        2.4871391809       -1.7000030240
 C         -5.6507030260        1.4920658471       -0.7604031491
 C         -4.5758089358        0.7423089758       -0.3161402389
 C         -4.4353725353       -0.3255760232        0.6422627037
 C         -5.3299133591       -1.0035809146        1.4520556015
 C         -4.8489745870       -2.0245589390        2.2591640217
 C         -3.5029987506       -2.3791218487        2.2465127813
 C         -2.5903546374       -1.7150971997        1.4452356851
 C         -3.0607429876       -0.6712572990        0.6576290725
 C         -0.5845835158        0.0519379900       -1.8766546808
 C          0.7697214841       -0.0178724171       -2.1623284590
 C          1.6736896390       -0.0559001602       -1.1329125782
 S          3.4229815848       -0.2161476949       -1.1543863749
 O          3.8506284757       -1.5487636923       -1.4915413038
 O          4.0685315001        0.8520293342       -1.8647916352
 H          5.9495206227        0.9166653433       -0.2161917928
 H          5.9106418513       -0.8174129192       -0.5174170557
 H          6.9150785122       -0.1767413201        0.7928906189
 H          5.7323180862       -1.8549097319        2.2957031405
 H          4.6306910479       -2.3377603437        0.9932831858
 H          3.9808178913       -1.7234513527        2.5246267218
 H          5.8790793696        0.6338582822        2.9180370880
 H          4.1148400150        0.7428053426        3.0462140552
 H          4.9866035087        1.8283288397        1.9574199346
 H         -0.4318475795        0.0986094125        1.5551535900
 H         -2.0518328261        2.2305897952       -2.0956337475
 H         -3.9891032149        3.5403196787       -2.8913065437
 H         -6.2469890950        3.0812398623       -2.0589609306
 H         -6.6443046466        1.3087970649       -0.3815133211
 H         -6.3777571641       -0.7461503711        1.4506322311
 H         -5.5308130155       -2.5621205753        2.9001636048
 H         -3.1629186231       -3.1911470175        2.8704661552
 H         -1.5514182573       -2.0047778389        1.4265516740
 H         -1.3219735781       -0.0037208411       -2.6594354290
 H          1.1163577312       -0.0674108169       -3.1829054360
  49
  -80.7126937700000       0.105885720105185      !
 C          4.8133617951       -1.3870445432        1.9829474062
 C          4.8162191163       -0.0465377563        1.2370712927
 C          4.9566760594        1.1195429792        2.2162864362
 C          5.9746776964       -0.0226276837        0.2368927620
 N          3.5639009428        0.0934186362        0.4999852970
 C          2.3320398703        0.1381773135        1.1585583672
 O          2.2169028446        0.2615693312        2.3902870172
 C          1.2627672487       -0.0002836637        0.2326657953
 C         -0.1102759881        0.0628226430        0.5213918274
 C         -1.0180149774        0.0000955103       -0.5121670494
 N         -2.3817209136        0.0928923289       -0.2473082787
 C         -3.2703644284        0.9155440853       -0.9066550299
 C         -3.0295797676        1.8487376613       -1.9082307337
 C         -4.1097006663        2.5657611147       -2.3926568113
 C         -5.3916937721        2.3746400691       -1.8850614078
 C         -5.6325655213        1.4662013831       -0.8638238114
 C         -4.5680913284        0.7358541079       -0.3656097357
 C         -4.4386034254       -0.2493877103        0.6791825781
 C         -5.3389201486       -0.8453912725        1.5449995081
 C         -4.8683626969       -1.8022229405        2.4329929611
 C         -3.5267761482       -2.1732765896        2.4482286041
 C         -2.6083500261       -1.5904149405        1.5923112769
 C         -3.0689782008       -0.6122967971        0.7192149805
 C         -0.5916525751       -0.1583777937       -1.8718740815
 C          0.7614217786       -0.2671063094       -2.1516530570
 C          1.6676648351       -0.2048088882       -1.1254503932
 S          3.4166945248       -0.3672237837       -1.1343850018
 O          3.8452029712       -1.7299156514       -1.3121451410
 O          4.0590111108        0.6091032172       -1.9690883850
 H          4.6599235939       -2.1980186159        1.2745517344
 H          4.0082073078       -1.3930425476        2.7140471158
 H          5.7603223881       -1.5333286725        2.4952162899
 H          5.8799559165        1.0187961667        2.7801344104
 H          4.1155666094        1.1195509388        2.9065984928
 H          4.9650872187        2.0638756151        1.6773803132
 H          5.9097417940       -0.8718828574       -0.4362267070
 H          6.9168862800       -0.0661196580        0.7776823937
 H          5.9406680974        0.8866988119       -0.3563619714
 H         -0.4311542330        0.2318365412        1.5374951167
 H         -2.0320067487        2.0192456829       -2.2825273140
 H         -3.9519242884        3.2942028821       -3.1729780820
 H         -6.2097607238        2.9534894680       -2.2858464864
 H         -6.6259929076        1.3350295134       -0.4634679034
 H         -6.3835205192       -0.5756598940        1.5245867963
 H         -5.5550880617       -2.2761023835        3.1176186100
 H         -3.1947646915       -2.9328211979        3.1390962861
 H         -1.5727570119       -1.8925905513        1.5961914286
 H         -1.3320647225       -0.2844283431       -2.6436860994
 H          1.1052017826       -0.4210456972       -3.1626650306
  49
  -80.7126793000000       0.104276739413301      !
 C          4.8188305756       -1.4980010919        1.8658368553
 C          4.8111573962       -0.0950384321        1.2455326054
 C          4.9374728654        0.9781151358        2.3271222899
 C          5.9734090002        0.0339019948        0.2571556399
 N          3.5615706605        0.0955706568        0.5145588735
 C          2.3261908419        0.1085912179        1.1678786348
 O          2.2012435776        0.1829696903        2.4029016969
 C          1.2617283299       -0.0017060084        0.2327867570
 C         -0.1121486137        0.0532119564        0.5183894330
 C         -1.0182898538       -0.0046076685       -0.5172109513
 N         -2.3820537541        0.0848029032       -0.2538090055
 C         -3.2746155201        0.8958482064       -0.9233563196
 C         -3.0398945967        1.8156567082       -1.9387325446
 C         -4.1240469429        2.5198755604       -2.4330549900
 C         -5.4045937251        2.3307961002       -1.9211585482
 C         -5.6392414053        1.4386770928       -0.8843474325
 C         -4.5705364495        0.7212695753       -0.3762735162
 C         -4.4355491295       -0.2442155061        0.6858312608
 C         -5.3316370765       -0.8207841874        1.5690877278
 C         -4.8568169996       -1.7575999829        2.4758304866
 C         -3.5157016700       -2.1303674821        2.4902346413
 C         -2.6018752730       -1.5676333188        1.6160811095
 C         -3.0654678480       -0.6055480939        0.7266474667
 C         -0.5874203050       -0.1500601344       -1.8769931172
 C          0.7676043239       -0.2343278209       -2.1560478548
 C          1.6718455294       -0.1719262163       -1.1281582418
 S          3.4237013660       -0.3038496034       -1.1370823593
 O          3.8776291957       -1.6505036952       -1.3672463307
 O          4.0500790133        0.7142283828       -1.9329033116
 H          4.6814838627       -2.2409358077        1.0832539711
 H          4.0075913159       -1.5817652342        2.5855044535
 H          5.7630250986       -1.6803324691        2.3718377207
 H          4.9383832624        1.9676810173        1.8764960799
 H          5.8596661717        0.8348361214        2.8837852121
 H          4.0930325755        0.9085394220        3.0102997743
 H          5.9271747703       -0.7562633816       -0.4857842630
 H          6.9141095909       -0.0380343306        0.7976043142
 H          5.9250474863        0.9896865195       -0.2570886290
 H         -0.4347026706        0.2134276812        1.5352869642
 H         -2.0438280356        1.9869878211       -2.3164915226
 H         -3.9703949351        3.2365988881       -3.2249778125
 H         -6.2259196669        2.8992504259       -2.3300568993
 H         -6.6311570053        1.3099791458       -0.4795020491
 H         -6.3760335718       -0.5502800926        1.5486751707
 H         -5.5397905008       -2.2151202267        3.1752129869
 H         -3.1803366293       -2.8757036267        3.1947103412
 H         -1.5675190138       -1.8736548474        1.6195816319
 H         -1.3242056808       -0.2827304878       -2.6510982335
 H          1.1146962031       -0.3692217047       -3.1687004704
  49
  -80.7121284100000       5.821245671495976E-002 !
 C          4.8070846712        1.2599851403        2.1559591403
 C          4.8002617619        0.0483176201        1.2210527493
 C          5.9482902078        0.1583266237        0.2160089900
 C          4.9474787354       -1.2525737348        2.0201523639
 N          3.5380578518        0.0252675697        0.4881972773
 C          2.3116160782       -0.0517493973        1.1472390775
 O          2.1973209906       -0.0332885363        2.3845899596
 C          1.2474292729       -0.1659052713        0.2108996224
 C         -0.1262500747       -0.1606280580        0.4991674649
 C         -1.0285989050       -0.1066935683       -0.5395941899
 N         -2.3905314899       -0.0064024908       -0.2662049485
 C         -3.2339038679        0.9527202890       -0.7860448420
 C         -2.9470400916        1.9938318245       -1.6605826956
 C         -3.9808134733        2.8473385074       -2.0051280937
 C         -5.2605273357        2.6805518869       -1.4834795053
 C         -5.5464552313        1.6563523367       -0.5912183261
 C         -4.5292739197        0.7885212998       -0.2344334402
 C         -4.4470733838       -0.3361066255        0.6644121829
 C         -5.3664511083       -0.9843386856        1.4705583496
 C         -4.9418932199       -2.0797552640        2.2093673125
 C         -3.6275807039       -2.5336491695        2.1374112714
 C         -2.6898265795       -1.8995708688        1.3410139534
 C         -3.1039841664       -0.7879246691        0.6171981549
 C         -0.5969310978       -0.1126008893       -1.9068507875
 C          0.7582398390       -0.1705641563       -2.1912187081
 C          1.6603994606       -0.2127980218       -1.1599784463
 S          3.4161675414       -0.2626993917       -1.1837402991
 O          3.9417547357       -1.5635026653       -1.5039348739
 O          3.9808097846        0.8399940550       -1.9121263101
 H          3.9843255214        1.1807166759        2.8630006433
 H          4.6886936636        2.1755727502        1.5811193743
 H          5.7439204221        1.3000477421        2.7049106917
 H          6.8932380259        0.1986553399        0.7522837093
 H          5.8367350496        1.0552310300       -0.3862920144
 H          5.9504532848       -0.7003413865       -0.4489245466
 H          5.8977684373       -1.2617071852        2.5470734987
 H          4.9031617745       -2.1060465766        1.3472351517
 H          4.1377614162       -1.3247835575        2.7425908547
 H         -0.4538106385       -0.1092623174        1.5259925761
 H         -1.9483014399        2.1411573369       -2.0417638559
 H         -3.7867036365        3.6641264307       -2.6830543902
 H         -6.0409594052        3.3686345873       -1.7706121887
 H         -6.5374193204        1.5428665689       -0.1795469238
 H         -6.3909374770       -0.6487905819        1.5176919047
 H         -5.6448233567       -2.5971762276        2.8442714924
 H         -3.3335739768       -3.3982357620        2.7121442907
 H         -1.6745167470       -2.2589891017        1.2773675841
 H         -1.3346250514       -0.1565983059       -2.6903671998
 H          1.1078981189       -0.2018893786       -3.2114964933
  49
  -80.7118682700000       4.420423321823021E-002 !
 C          4.9491240771        1.5859400556        1.9364830286
 C          4.8656648675        0.8569644401        0.5961615566
 C          5.0658986633        1.8327715488       -0.5701797577
 C          5.9413382790       -0.2335213160        0.5489868925
 N          3.5630294196        0.2120480157        0.4542710527
 C          2.3592568792        0.8861370313        0.6646700412
 O          2.2692566323        1.9931879792        1.2253373306
 C          1.2677910791        0.1527405658        0.1227982431
 C         -0.0936999249        0.4745692782        0.2393682937
 C         -1.0363638040       -0.3503319790       -0.3351026142
 N         -2.3913119341       -0.0808642538       -0.1747560992
 C         -2.9958969129        1.1567508944       -0.2752475207
 C         -2.4486080780        2.3852795402       -0.6268410886
 C         -3.2928348197        3.4817647845       -0.6616025674
 C         -4.6488781564        3.3628677077       -0.3707190311
 C         -5.2093810132        2.1326950356       -0.0591929030
 C         -4.3835538430        1.0228606502       -0.0171012832
 C         -4.6159045261       -0.3740644356        0.2499504836
 C         -5.7455522436       -1.1090461167        0.5645597202
 C         -5.6073966614       -2.4706665123        0.7926641134
 C         -4.3608529265       -3.0869298599        0.7321833022
 C         -3.2172458199       -2.3705766115        0.4244173432
 C         -3.3551386107       -1.0143311130        0.1518753838
 C         -0.6475075240       -1.5113278428       -1.0829125524
 C          0.6949826544       -1.8396490859       -1.1823776709
 C          1.6325303655       -1.0310765123       -0.5946489502
 S          3.3819249121       -1.1691152741       -0.5311293087
 O          3.8085836979       -2.3324126187        0.1956442200
 O          4.0094957457       -0.9617346569       -1.8093589115
 H          4.8351594149        0.8828733080        2.7579183635
 H          4.1501686843        2.3228206615        2.0029026856
 H          5.9087681849        2.0885783054        2.0220776139
 H          6.0543772979        2.2814847437       -0.5199701773
 H          4.3164673624        2.6198926788       -0.5239291339
 H          4.9625822579        1.2968657176       -1.5107743854
 H          6.9148979376        0.2129762669        0.7356751699
 H          5.9498399021       -0.7152261104       -0.4235255138
 H          5.7411317605       -0.9893850941        1.3035606701
 H         -0.3838367740        1.3190858718        0.8443154035
 H         -1.4035254752        2.4833387833       -0.8745950966
 H         -2.8895017439        4.4480071553       -0.9222834237
 H         -5.2753066441        4.2412390110       -0.4012907105
 H         -6.2652651070        2.0406630776        0.1434057121
 H         -6.7108633586       -0.6318567622        0.6339594744
 H         -6.4773095429       -3.0610238909        1.0367428465
 H         -4.2807844827       -4.1429495148        0.9391851026
 H         -2.2491434404       -2.8466461943        0.4155223616
 H         -1.3968491150       -2.0665873757       -1.6210877195
 H          1.0095419937       -2.7117761132       -1.7344193790
  49
  -80.7118457200000       4.316190445989958E-002 !
 C          4.7191119898        2.1405125375       -0.4870181117
 C          4.8215227626        0.9687352273        0.4983230920
 C          5.9802336720        0.0541290438        0.0911403803
 C          5.0478039656        1.4750750207        1.9225820432
 N          3.5831785248        0.1955720417        0.4425802521
 C          2.3615119110        0.7511311730        0.8347071416
 O          2.2601845527        1.7876965759        1.5151126832
 C          1.2737553196       -0.0003221603        0.3144027067
 C         -0.0897708847        0.2791063626        0.4936580024
 C         -1.0326501333       -0.5127616136       -0.1253716444
 N         -2.3814106543       -0.1928306102       -0.0134002954
 C         -2.9036138977        1.0808388325       -0.1413626841
 C         -2.2585734872        2.2772897706       -0.4320431558
 C         -3.0311178370        3.4222671891       -0.5218820660
 C         -4.4109670062        3.3811492147       -0.3454668938
 C         -5.0660921709        2.1833420985       -0.0987120799
 C         -4.3125859639        1.0260553136       -0.0025823042
 C         -4.6465916967       -0.3593000284        0.2127180154
 C         -5.8409798122       -1.0311437840        0.4040588529
 C         -5.8036996930       -2.4039927614        0.6013328640
 C         -4.5948779445       -3.0937413187        0.6309916734
 C         -3.3879435887       -2.4418859650        0.4451332506
 C         -3.4210333634       -1.0727859379        0.2055121103
 C         -0.6445720662       -1.6366637591       -0.9271676300
 C          0.7020417927       -1.9070650088       -1.1119230983
 C          1.6418287414       -1.1031337693       -0.5195349077
 S          3.3909588651       -1.0717339383       -0.6853625304
 O          4.0299680303       -2.2549911304       -0.1828177201
 O          3.7978674967       -0.6446160333       -1.9987785231
 H          3.9162158841        2.8067637411       -0.1793181562
 H          4.5057329539        1.7581538743       -1.4827061022
 H          5.6523411220        2.6966524955       -0.5091921045
 H          6.9187197702        0.5903766861        0.2087258579
 H          5.8732794808       -0.2546266350       -0.9437962152
 H          5.9927504230       -0.8355282093        0.7146377428
 H          5.9500844602        2.0795940409        1.9589065672
 H          5.1456275448        0.6382941879        2.6097272466
 H          4.1985816374        2.0810748223        2.2336080725
 H         -0.3799330136        1.0837709369        1.1506743814
 H         -1.1932794726        2.3155111617       -0.5954837602
 H         -2.5508531451        4.3640852593       -0.7375904934
 H         -4.9801836421        4.2952704988       -0.4171971880
 H         -6.1389453796        2.1523367140        0.0121097967
 H         -6.7788992254       -0.4975750919        0.4000319972
 H         -6.7255309959       -2.9459508317        0.7477812473
 H         -4.5972207965       -4.1578325343        0.8104265245
 H         -2.4529077725       -2.9771897952        0.5007080237
 H         -1.3985441756       -2.1919440316       -1.4585821506
 H          1.0167912428       -2.7257571893       -1.7403839432
