111
 energy: -152.302451666355 gnorm: 0.000091494662 xtb: 6.7.1 (edcfbbe)
C            8.74967040185886        0.48442251271140       -1.61133453116691
C            7.62716025361733        1.30587550972588       -2.25162358766936
C            7.98436653400340        2.79231308599348       -2.10955650042811
C            7.54931393720267        0.92884898675285       -3.73796108020033
C            6.27514986290030        1.05665305911396       -1.60077196893918
C            5.15406058231204        1.74358324068349       -2.08578343728028
C            3.89078507780661        1.59139488702653       -1.55184961207846
C            3.73923358545804        0.72414997425987       -0.48003313891954
C            4.84634360764222        0.00048246582072        0.01087571268794
C            6.10492352463920        0.17072444726222       -0.54704039794329
C            4.34983515915711       -0.83074682855184        1.07527138066107
C            4.96037007048454       -1.73514454309016        1.93112737028274
C            4.20669761079184       -2.38397009897405        2.89844259176813
C            4.80768951687706       -3.39230861832764        3.86587722096922
C            6.30420743815696       -3.61464972786089        3.63033116592991
C            4.62184036156217       -2.88431043593516        5.30277477934793
C            4.09375967924366       -4.74081730469609        3.69408803049321
C            2.84084777449286       -2.08662132504027        2.99268414890410
C            2.20784595181897       -1.19147992870579        2.15426377250070
C            2.96544315232051       -0.57170145273216        1.17140652378586
N            2.60558284147650        0.36277389878017        0.22177397461971
C            1.32386182923341        0.88640583418523        0.02399243764416
C            1.15528528087344        2.25978407382372       -0.06287300444275
C           -0.11959168987253        2.80931074210827       -0.24496116330734
C           -0.22579231126959        4.27204402180120       -0.29398031099399
O            0.80567764241345        4.97514165612882       -0.43749224301918
C           -1.52123194261836        4.88473455434040       -0.12351259300583
C           -1.60257131492104        6.30138255746273       -0.15327724645014
C           -2.81390756104644        6.90156488237995        0.04398393867607
C           -3.95509529099742        6.11766039668401        0.27775944394393
C           -3.79461544648068        4.74444583831501        0.29719503818907
N           -2.62710796632509        4.17574061796868        0.10508400835300
C           -1.20734341529096        1.94810710168456       -0.38574949725931
C           -1.04383409477331        0.57556091457668       -0.24106977811036
N           -2.16327033160612       -0.25438732384261       -0.33895156803077
C           -3.37315002631493       -0.02819405866846        0.28824211371086
C           -3.74399313823308        0.96211028822426        1.18614255951618
C           -5.03212005731472        0.93467394791182        1.68067023491746
C           -5.96581784191209       -0.04769046830269        1.32433599503278
C           -7.36478402395006        0.01945953828299        1.91821432655318
C           -8.01224142769031        1.35617597850886        1.52860842552673
C           -7.26868140149510       -0.08606240226846        3.44689437581463
C           -8.27111775019669       -1.10939620706390        1.41954595566010
C           -5.57257638979326       -1.04915742143097        0.44880564015609
C           -4.28419193597509       -1.04547084374442       -0.06564471532821
C           -3.58279845640672       -1.92508851442413       -0.96278770090425
C           -3.95723476546008       -3.07449266755927       -1.64274199063427
C           -3.04821639717924       -3.70656191608430       -2.47820836091918
C           -3.38709464333793       -4.97358584129739       -3.24881638100482
C           -2.41549585803647       -6.08816081304324       -2.83514228861533
C           -3.25417377445243       -4.69900341665586       -4.75353036253750
C           -4.81273766250003       -5.46299470582646       -2.97936067159681
C           -1.77247719978807       -3.14619347590681       -2.62398274607467
C           -1.37350990447483       -2.00406064412748       -1.95945273392392
C           -2.28143076082492       -1.39710262220787       -1.10481910994835
C            0.22280207102178        0.03336192163968       -0.04164351912954
H            8.86258424197743        0.73053655667167       -0.55803233988977
H            8.56120831416593       -0.58205414913588       -1.71175398289014
H            9.69080201961583        0.70680104595402       -2.11034254186980
H            7.25221413059111        3.42589036861132       -2.60184438087354
H            8.02243391956563        3.07024676077441       -1.05832223319370
H            8.95795211334674        2.98785396224110       -2.55425757335402
H            8.51598304417722        1.08073294735780       -4.21364287330550
H            6.81415862313279        1.53201318797371       -4.26301790455851
H            7.27163384144466       -0.11771048601578       -3.84614622907477
H            5.26905402302302        2.42509864411975       -2.91432368690919
H            3.05227696410686        2.13240895294978       -1.96211721828736
H            6.92877251078832       -0.39620367818010       -0.14683432100054
H            6.01788413118517       -1.91130480874212        1.82742236734189
H            6.86441148603951       -2.69376751230737        3.77457866569723
H            6.67755446932933       -4.34860006681166        4.34173906886183
H            6.49048679170417       -3.99393060971660        2.62817628365734
H            3.57045715597903       -2.77082149459862        5.55146857537446
H            5.10678555693034       -1.91801001387669        5.42490235830550
H            5.06459782333595       -3.58478275158485        6.00780711102027
H            3.03309923218771       -4.66039757090041        3.91469413169712
H            4.52529544731536       -5.48098153760702        4.36466418488488
H            4.20308471068120       -5.09597648164541        2.67138592233353
H            2.24602534323647       -2.56778532924256        3.75387393110042
H            1.15810976266277       -0.97333977064954        2.27847108166760
H            1.99648931832938        2.92639568727511        0.04478623143258
H           -0.68683866382143        6.84374404011997       -0.33287849049106
H           -2.89856046017525        7.97854850510856        0.02073349363034
H           -4.92333008284559        6.56278522401827        0.43659562898131
H           -4.62608861880627        4.07283354773431        0.47066439077309
H           -2.18168966320807        2.33951352403369       -0.63104164572340
H           -3.05284366847805        1.73089485614637        1.49472947912193
H           -5.31860369498877        1.70853759535699        2.37651561410179
H           -9.02530966021716        1.41029777725235        1.92170621858581
H           -7.45117711669434        2.19935685070219        1.92171939028934
H           -8.05672171202231        1.45031912923380        0.44544297335252
H           -6.68649939212972        0.72984259412185        3.86591349276292
H           -6.79348990380749       -1.02325834505597        3.72927410543947
H           -8.26297113035724       -0.05628610255735        3.88767209016402
H           -9.25762806007675       -1.00643591745432        1.86716872527020
H           -8.38708742638831       -1.06950392718119        0.33889151468873
H           -7.87585888458479       -2.08252906721708        1.70151094977816
H           -6.24403183704861       -1.83888325875486        0.15604634639743
H           -4.95738008491106       -3.45117058571368       -1.50865110238483
H           -1.38667482652509       -5.82355534402657       -3.06234221199004
H           -2.49113136155759       -6.27438378643926       -1.76575155407236
H           -2.65456556859010       -7.00857169085446       -3.36372039216845
H           -2.23988518567474       -4.41330151227917       -5.01751580626083
H           -3.92274039628372       -3.89286306848697       -5.04856338815556
H           -3.51532042133431       -5.58968922845744       -5.32116988936583
H           -4.95557389153035       -5.69116364232691       -1.92560337339242
H           -4.99667325478607       -6.37266179930955       -3.54751481246782
H           -5.54619259338948       -4.72165833141538       -3.28791705668909
H           -1.06113774321542       -3.61566812202517       -3.28599050318810
H           -0.38819869001432       -1.59362211235839       -2.11913999624327
H            0.35078519511210       -1.03275463476025        0.05552087314321
