111
 energy: -152.302453169889 gnorm: 0.000059232740 xtb: 6.7.1 (edcfbbe)
C            8.76426385889773        0.38783423928157       -1.49030891743189
C            7.65647656273321        1.20946236257576       -2.15556501467288
C            8.02729480202979        2.69443734655319       -2.03490859267126
C            7.58976963381543        0.80816045134027       -3.63609202105852
C            6.29552575030638        0.98435841552593       -1.51455825595999
C            5.18622078732383        1.67427413312768       -2.02199880886582
C            3.91581041469938        1.54153334975732       -1.49987687161717
C            3.74452469125831        0.69128061235522       -0.41750441523526
C            4.83984884719329       -0.03354449205070        0.09772582531167
C            6.10593681926453        0.11705014413366       -0.44868556655674
C            4.32403302321967       -0.84421885935101        1.16880856742637
C            4.91676914050396       -1.73922974296672        2.04680350501193
C            4.14587740718403       -2.36698625573264        3.01448106768598
C            4.72690298522220       -3.36346281059555        4.00611830852916
C            6.22530332348825       -3.59808002179652        3.79582806179336
C            4.52349635536826       -2.83191737953788        5.43210300691393
C            4.00743745952866       -4.71034068294162        3.84512800148127
C            2.78098171675040       -2.05894998157595        3.08588014943612
C            2.16545170660017       -1.17283415984652        2.22521899343309
C            2.94054025039124       -0.57364752239097        1.24326514062395
N            2.59970403579416        0.34891280774852        0.27529127578534
C            1.32305445486620        0.87521182506036        0.05239818360225
C            1.15955816720855        2.24797595205885       -0.05064975206443
C           -0.11158725028734        2.79876519495694       -0.25425482343692
C           -0.21360016516943        4.26129162432566       -0.31702095578017
O            0.82090279771059        4.96048429988659       -0.45753212226142
C           -1.50888035140721        4.87838443861268       -0.16237172575022
C           -1.58612921101338        6.29497470274071       -0.20352748780650
C           -2.79718680980576        6.89991891698079       -0.01960058691281
C           -3.94215774068798        6.12079949412695        0.21155992498371
C           -3.78564886604227        4.74729942285503        0.24198716180801
N           -2.61835758325994        4.17385254776603        0.06281763799977
C           -1.19980498913835        1.93920435393198       -0.40230923525699
C           -1.04127847080965        0.56750325742897       -0.24505366883125
N           -2.15941581043594       -0.26268035308540       -0.35547517569197
C           -3.37864922637287       -0.03583118675136        0.25276690171355
C           -3.76489005559530        0.95943928721268        1.13856389764759
C           -5.05940801140359        0.93076796832562        1.61605702278927
C           -5.98479516414188       -0.05738368712539        1.25406703953287
C           -7.39126077022306        0.00778215534734        1.83022434016524
C           -8.03911839307439        1.33981705296727        1.42556494321053
C           -7.31327301877692       -0.08912171281467        3.36053088298361
C           -8.28714161944389       -1.12728303026729        1.32677867362913
C           -5.57676667968926       -1.06284890225257        0.38992241676517
C           -4.28164226189480       -1.05819925246473       -0.10733336505871
C           -3.56521706587855       -1.94135397187155       -0.98910959360442
C           -3.92616011155651       -3.09621388945886       -1.66726673530265
C           -3.00322259239980       -3.73036298800967       -2.48578589321686
C           -3.32660191046459       -5.00312769410984       -3.25361010209040
C           -2.35489965544801       -6.11094536564336       -2.82231373846989
C           -3.17644430908802       -4.73561476685225       -4.75799038184133
C           -4.75304888633342       -5.49805501970908       -2.99901033605670
C           -1.72739999911163       -3.16661362067391       -2.61712137096484
C           -1.34155737350888       -2.01932963379197       -1.95384216776141
C           -2.26351198619867       -1.41037777608507       -1.11582542614740
C            0.22091587208164        0.02439259145223       -0.02153258978912
H            8.86931476363709        0.65061637768562       -0.44022572761605
H            8.56604346081530       -0.67826880134090       -1.57462657658600
H            9.71245044301051        0.59232427052965       -1.98358278223525
H            7.30643573661472        3.32690420630300       -2.54496269126034
H            8.05803107233022        2.98965068710517       -0.98815889189440
H            9.00707217944084        2.87270642041657       -2.47323144865397
H            8.56217339327277        0.94430393872589       -4.10481350651480
H            6.86459299620408        1.40824578329366       -4.17827631618765
H            7.30465164848285       -0.23782552275392       -3.72947494503340
H            5.31659358709276        2.34213133008257       -2.85935117979739
H            3.08667122314179        2.08405274984575       -1.92692238617085
H            6.92026848504981       -0.45065900432699       -0.03051122867626
H            5.97422465950156       -1.92459269175115        1.95983751505021
H            6.78880480055200       -2.67823113638951        3.93369490185077
H            6.58394501228001       -4.32286125581261        4.52400972869198
H            6.42380673555879       -3.99423041425261        2.80259037643299
H            3.46927948989261       -2.71099929644422        5.66476730327083
H            5.01019358832301       -1.86542145964246        5.54537291093525
H            4.95421201718610       -3.52250428952169        6.15414868831098
H            4.42225272478625       -5.44130122613269        4.53604415667521
H            4.13253466841666       -5.08396758439000        2.83085108518340
H            2.94356861749120       -4.61950624009224        4.04531346470123
H            2.17283314695130       -2.52397000346346        3.84656759008658
H            1.11563403931254       -0.94566117620205        2.33143749567462
H            2.00117248767468        2.91341398746325        0.06121356318919
H           -0.66754433186358        6.83337472598226       -0.38042246790186
H           -2.87874118757972        7.97692100726664       -0.05147633285897
H           -4.91023927894554        6.56976946788244        0.36021294663854
H           -4.62040383321801        4.07940304918957        0.41386350537950
H           -2.16975217909333        2.33099076419919       -0.66378564301908
H           -3.08037593667307        1.73263098311952        1.45096370524280
H           -5.35789297444594        1.70815921638521        2.30286516546595
H           -9.05751195856522        1.39147240995642        1.80499107395149
H           -7.48691442292405        2.18727681341163        1.82199519866174
H           -8.06964923227509        1.42862394602391        0.34147326942839
H           -6.74028949703815        0.73194139087044        3.78216120389445
H           -6.83691317030909       -1.02239344649917        3.65375537143911
H           -8.31299555034695       -0.06197745404573        3.78901251100643
H           -9.27939330789474       -1.02575838108949        1.76186396114760
H           -8.39014284010132       -1.09368968896811        0.24459406595807
H           -7.89162756830085       -2.09733106161040        1.61883447100357
H           -6.24176045033762       -1.85655720382416        0.09319646882957
H           -4.92685219732889       -3.47555527283037       -1.54519633119370
H           -1.32473625579765       -5.84339581004979       -3.03973865017784
H           -2.44160595083877       -6.29102812319432       -1.75271200412390
H           -2.58413820818638       -7.03556386148186       -3.34789511759700
H           -2.16039542118627       -4.44602099886101       -5.01076646637172
H           -3.84534494198414       -3.93442953931812       -5.06551044249170
H           -3.42595602043568       -5.63053541813413       -5.32419582500919
H           -4.90786232040885       -5.72049626819047       -1.94571784662251
H           -4.92531799997813       -6.41207477269886       -3.56383088807026
H           -5.48630810155738       -4.76237615800268       -3.32124636251836
H           -1.00536446892791       -3.63755863971727       -3.26636621600565
H           -0.35543077066273       -1.60648022635297       -2.10190399732651
H            0.34488079694043       -1.04108751814670        0.08758010661342
