111
 energy: -152.365420815893 gnorm: 0.000086051465 xtb: 6.7.1 (edcfbbe)
C            8.77157788233892        0.34404751524134       -1.45350966356268
C            7.68917617148567        1.19461470576897       -2.12409343998806
C            8.08806340841456        2.67031173391015       -1.98258491924266
C            7.63497617640783        0.81030026880468       -3.60946352294470
C            6.31541615313049        0.98909051655965       -1.50246976927465
C            5.22604812568000        1.70305225216047       -2.01947060080735
C            3.94617956211801        1.58966572936536       -1.51595139851831
C            3.74335955686081        0.73523902121040       -0.44369173798248
C            4.81659487834850       -0.01468117908708        0.07878864074602
C            6.09449684331369        0.11824340943065       -0.44855736911130
C            4.27328754560994       -0.82762359944056        1.13224981447697
C            4.84384368129028       -1.73713695155867        2.01288243057707
C            4.05413407348989       -2.36123234962195        2.96425972935291
C            4.60864255126973       -3.37220972811979        3.95743705339248
C            6.10767667316473       -3.62077078082598        3.76866699528554
C            4.38900311579525       -2.85048963365262        5.38451896694286
C            3.87827501415889       -4.71014416621052        3.77432807687869
C            2.69232087517626       -2.03655842305181        3.01919260343846
C            2.09936672452457       -1.13660424093202        2.15696709862992
C            2.89403723529810       -0.53991783926357        1.19073109295035
N            2.58073641722250        0.40721596960942        0.23217125649319
C            1.31618984233976        0.94339831482292       -0.01381497685728
C            1.15159355270104        2.31683132939736       -0.15404341855782
C           -0.11031454974481        2.85068939865168       -0.40032493452494
C           -0.21914635564882        4.32057852479988       -0.54012511665956
O            0.70481993192846        4.99960531035990       -0.94181596938086
C           -1.51070104784362        4.95750537999996       -0.14278957010240
C           -1.79534860916035        6.24368904925544       -0.60004121754970
C           -2.98084160809099        6.84099641593406       -0.20833577203921
C           -3.83337232615443        6.13869858089586        0.62876000106875
C           -3.45404256815968        4.86596697645145        1.03588724970378
N           -2.32912068716581        4.28837064631831        0.66492805095627
C           -1.20881843788604        2.00910535547303       -0.52833060275459
C           -1.05033492040110        0.63589342906759       -0.36708065123804
N           -2.16255947089173       -0.20277126814153       -0.45813829484116
C           -3.37702120422694        0.01169976133738        0.16955375007520
C           -3.76719503457988        1.01749967420940        1.04025115969839
C           -5.04799209602816        0.96405291331497        1.55138324477310
C           -5.95542387065384       -0.05670112223415        1.23657057084862
C           -7.34726658053140       -0.01663706507343        1.85115390523314
C           -8.04473396894065        1.28665166629268        1.43611407740909
C           -7.22480587047938       -0.07720857298361        3.38034922508863
C           -8.22429544527657       -1.18723247682005        1.39848299669419
C           -5.54267008041386       -1.06908161804104        0.38653826712517
C           -4.25879821047825       -1.04282839586108       -0.14292790457895
C           -3.53918767547707       -1.93369240643082       -1.01162904444904
C           -3.88830704583733       -3.11479031578717       -1.65314079990316
C           -2.96806804944827       -3.75249710040896       -2.46844748059776
C           -3.27840849321387       -5.05135591065472       -3.19825171311116
C           -2.28090561353147       -6.13004689455285       -2.75282372546571
C           -3.15517486908147       -4.82150107467760       -4.71118207933923
C           -4.69183380336305       -5.56482229830477       -2.90984086489773
C           -1.70515735901942       -3.16878540089320       -2.63489412482679
C           -1.33150477854228       -1.99643054748346       -2.00984882305305
C           -2.25165460884084       -1.38156249303892       -1.17533540544592
C            0.20953546225913        0.10391074377986       -0.11184559985617
H            8.86808597800293        0.59388903829314       -0.39944517007903
H            8.55196789740100       -0.71668400798067       -1.55096705158789
H            9.73021795944243        0.53358858099733       -1.93258475830574
H            7.38536629549979        3.32215565218891       -2.49384539476228
H            8.11193667141070        2.95317831540047       -0.93217834118483
H            9.07633025653068        2.83472366613283       -2.40734852799747
H            8.61625370823811        0.93053969250389       -4.06413102024717
H            6.92978699282768        1.43097467175377       -4.15494846111118
H            7.32895973755311       -0.22832437982575       -3.71744335536210
H            5.37960796652272        2.37418263175208       -2.85056550311847
H            3.13386674904309        2.14787907179674       -1.95589577225845
H            6.89110714838561       -0.46873146484606       -0.02280176714047
H            5.90044981285902       -1.93274959534262        1.93807650258609
H            6.67789687358884       -2.70740623501603        3.92145034940927
H            6.44808908162444       -4.35439593285383        4.49690999949869
H            6.31729029116213       -4.01136829237710        2.77553365952952
H            3.33250389900538       -2.72133836121024        5.60208571743960
H            4.88287492997205       -1.88945370392370        5.51274898140152
H            4.80214364118106       -3.55066478998946        6.10778662807163
H            4.27306299426908       -5.45115158479881        4.46648060721655
H            4.01649962176746       -5.07719278022633        2.75935113135178
H            2.81211908148211       -4.60886099059741        3.95675948289358
H            2.06747468871232       -2.49972037328498        3.76759970070203
H            1.05038239805398       -0.89931776724998        2.25236675430870
H            1.99246089789074        2.98421419779136       -0.04635551089755
H           -1.08877632658914        6.74081199302560       -1.24617522233114
H           -3.23394287429201        7.83536559351712       -0.54644483386057
H           -4.76669034941420        6.56531578556184        0.96166588614399
H           -4.08330951216835        4.27929628450914        1.69249105834395
H           -2.17885513917371        2.40521352210912       -0.77670065121025
H           -3.09490393886436        1.81486703369898        1.31721433846432
H           -5.35176390726743        1.74731397873987        2.22954229057998
H           -9.05140997220131        1.32119101963443        1.84779935802011
H           -7.50281648427968        2.15848043401877        1.79198462069742
H           -8.11261384971212        1.34701042332747        0.35176985428363
H           -6.66440899312550        0.76905342533510        3.76788350850077
H           -6.71274753825550       -0.98944172142677        3.67945008308901
H           -8.21247532650888       -0.06954843145697        3.83701998727212
H           -9.20714667197357       -1.10329977733635        1.85827432990194
H           -8.35674620274152       -1.18170342720785        0.31900702984450
H           -7.79332400862240       -2.13876331394856        1.70089204668497
H           -6.19155813121717       -1.88818082225659        0.12501900395591
H           -4.87995966945849       -3.50815099711773       -1.50400056710545
H           -1.25907943482853       -5.84978335385718       -2.99264089454870
H           -2.34857088588823       -6.28260076942736       -1.67758407294645
H           -2.50061939364504       -7.07263416788335       -3.25005288961685
H           -2.14832524698642       -4.52030887924489       -4.98640587274161
H           -3.84297179551083       -4.04067433536109       -5.02941593651020
H           -3.39630356381177       -5.73529914280829       -5.25046436722566
H           -4.82696337886069       -5.76246938486523       -1.84894633144860
H           -4.85624432208914       -6.49596201094751       -3.44865468754079
H           -5.44267495876541       -4.85022585371300       -3.23905216258803
H           -0.98351121637014       -3.64422259201673       -3.28154619526661
H           -0.35451644277304       -1.57124251781831       -2.18446471605161
H            0.33011696462546       -0.96174405259250        0.00662982644666
