111
 energy: -152.362020098366 gnorm: 0.000044145648 xtb: 6.7.1 (edcfbbe)
C            8.71637618107941        0.77736306517600       -1.15571983097453
C            7.67003787501865        1.82393582865534       -1.54876404967661
C            8.12892350694727        3.18321966034378       -1.00218836238193
C            7.60095384581111        1.87558300139432       -3.08155648213678
C            6.28876132678068        1.50605748569568       -0.99494278744637
C            5.23094428424344        2.38183237499087       -1.27248333882544
C            3.94855188806033        2.18406275372467       -0.80220482020527
C            3.70982454526902        1.07098267147902       -0.01160800028536
C            4.74881945499575        0.15646439139410        0.25462260759637
C            6.02994373582823        0.37940317784689       -0.23204739714262
C            4.17131040831300       -0.90167564960667        1.03768511669223
C            4.69398011279065       -2.05348445541118        1.60268559850215
C            3.87797014371621       -2.89629355457075        2.34574237804643
C            4.47408313375333       -4.16227633438189        2.94525753055337
C            3.45075446915252       -4.99238903127702        3.72495073893665
C            5.03077320863061       -5.03719577047257        1.81286604819639
C            5.60625419744045       -3.77609689816199        3.90757282746556
C            2.53881992671032       -2.53945042318567        2.52279032561843
C            1.99123004473722       -1.39523334719430        1.97061953960130
C            2.80678623415481       -0.58037857636453        1.20427310334804
N            2.53595185305060        0.61655619292000        0.56441249343900
C            1.30102004922530        1.26405849116070        0.51068636821647
C            1.21353701169494        2.62793888869383        0.76432766098475
C           -0.01299269711639        3.28167377420697        0.67781969240835
C           -0.02789391337064        4.73681181959823        0.95518920971669
O            0.81257691942048        5.26357940843400        1.65726725627257
C           -1.10380616016405        5.56046936914007        0.32606538920451
C           -1.39262030846403        6.81337958029706        0.86642339708610
C           -2.36504659694885        7.58950361609286        0.26013382429231
C           -3.00570282575475        7.09326411093691       -0.86435415842910
C           -2.63974827776294        5.83601855765413       -1.32867706488264
N           -1.71897783879457        5.08865938370547       -0.75438432149153
C           -1.16484465531724        2.56311952966251        0.37878294641603
C           -1.08516471685871        1.19100611801169        0.15927574731011
N           -2.24331978984141        0.46221512744604       -0.12176447178333
C           -3.43902082883811        0.54960090384518        0.56855345565354
C           -3.77603429586219        1.28851072236044        1.68973836665794
C           -5.05544476899326        1.16051448274571        2.20013914885311
C           -6.01106330634829        0.31108497585360        1.63670839264829
C           -7.42035056042775        0.17887076556234        2.19715409302119
C           -7.64985163811532       -1.27395477605375        2.63736434922774
C           -8.43100250133597        0.55628178481349        1.10460978516270
C           -7.66953548404143        1.08555617137777        3.40551179885326
C           -5.65072031654694       -0.44834717407488        0.53117492790832
C           -4.37645938178339       -0.33884227198272       -0.00098338895131
C           -3.70924596990185       -0.98998137016560       -1.09549514046866
C           -4.11419103213750       -1.93703912640298       -2.02182508655103
C           -3.23214093363051       -2.37369477518505       -3.00159216446211
C           -3.69637141217254       -3.42661850985119       -3.99826701284955
C           -4.90171694208210       -2.88272562089383       -4.77824259054302
C           -4.10221974661605       -4.69409073150692       -3.23244232557051
C           -2.61190471472070       -3.81110367317849       -5.00836893020943
C           -1.95064767158400       -1.81826169060034       -3.03798374483097
C           -1.52064709410886       -0.87087809483752       -2.12619578747646
C           -2.39799009416746       -0.46872895779598       -1.13373123744939
C            0.14638118656985        0.54544641723202        0.21239454558858
H            8.81925592810160        0.71451855157649       -0.07485621111219
H            8.45593645445086       -0.20303073484904       -1.54799796506258
H            9.68310221436426        1.05807512794626       -1.56929044470928
H            7.45509242488345        3.98034407890693       -1.30328486943143
H            8.16194950360336        3.15838509259935        0.08509615605582
H            9.12409257869923        3.42048523429077       -1.37290652325643
H            8.58657710235845        2.07998882012300       -3.49483698365497
H            6.92207522539045        2.65213990909953       -3.42253506206217
H            7.25249546083332        0.92234289487734       -3.47392304361366
H            5.41200875039365        3.25363258694005       -1.88248762439545
H            3.16018646908820        2.87622313320945       -1.05672861457780
H            6.79973134767728       -0.33905145409638       -0.00485096444981
H            5.73987267869649       -2.27629589506219        1.45821683621046
H            2.63165624649169       -5.30834505844289        3.08297757474139
H            3.93335560079596       -5.88553654732374        4.11725664355418
H            3.05000903910755       -4.43177577620956        4.56630056426521
H            5.81155253683173       -4.52178053230730        1.26070886444006
H            4.23709715758673       -5.29868013924073        1.11594121093839
H            5.45043378983481       -5.95538665093338        2.21887513053344
H            6.03571637149081       -4.66777999633507        4.35981082785783
H            5.22321524914303       -3.13666478913280        4.70024010611093
H            6.39875032774276       -3.24060138648293        3.39240892263597
H            1.88900840534310       -3.16413937735582        3.11296611688075
H            0.95637865564384       -1.14781669489246        2.15385240848315
H            2.09033603054478        3.19354062418959        1.03903966425051
H           -0.85441016023182        7.14746833120041        1.73972820167600
H           -2.61585570700791        8.56382599722093        0.65388765604314
H           -3.76673381337777        7.66519174974134       -1.37200923436637
H           -3.10593759388658        5.40502273908510       -2.20532703097978
H           -2.11775154785853        3.05865322497136        0.30511783346061
H           -3.06255017711789        1.94096204552234        2.17059197182183
H           -5.30218595376290        1.74525255970678        3.07081856393620
H           -8.64733761161566       -1.38644217012170        3.05730531873021
H           -7.55313515627387       -1.96116743548409        1.80154134273322
H           -6.92187904111115       -1.55574199691828        3.39535420899194
H           -8.34453320327350       -0.09741014094539        0.24128523136246
H           -8.26251528882139        1.57944409155669        0.77475873954690
H           -9.44608538694628        0.47994489515802        1.48906299409144
H           -8.69292872057140        0.95355114853619        3.75153529721992
H           -7.00351077319288        0.83514433584141        4.22796005385276
H           -7.53661005112637        2.13283122704687        3.14376362244269
H           -6.34883030821862       -1.13375642892466        0.07575534409709
H           -5.12114211888011       -2.32139840405050       -1.96832133192065
H           -5.73260006316421       -2.65557710454505       -4.11619824538981
H           -4.62736676368243       -1.97106511482487       -5.30506457016504
H           -5.23866772489614       -3.61582797930502       -5.50833668454916
H           -4.91719821120241       -4.49640853484807       -2.54182082418551
H           -3.25739870161746       -5.07419378962926       -2.66171122005507
H           -4.42491331927873       -5.46636694559786       -3.92775057110435
H           -2.31070016788293       -2.95392787903837       -5.60610299935881
H           -3.00034569693985       -4.57063362765914       -5.68417347671776
H           -1.73853345108765       -4.22281159392186       -4.50785473651967
H           -1.25366521731106       -2.12336807047367       -3.80077043561307
H           -0.52863704215128       -0.45268843319133       -2.20653890174355
H            0.20618635378567       -0.51558050651708        0.02654599356767
