  164
       -256.89619336
 C          5.8570521596        4.9834532237        2.8937894924
 C          6.5195034508        4.5666224235        1.6156283677
 C          7.1607659789        5.5032983263        0.8119622283
 C          7.8026742081        5.1050191035       -0.3475971266
 C          7.8086007608        3.7774639252       -0.7281054846
 C          7.1677972872        2.8259696194        0.0648676560
 N          7.1502136437        1.4807610699       -0.3151047276
 C          8.2607808377        0.9033206244       -0.9368293080
 C          8.0934615853       -0.0449510951       -1.9459567383
 C          9.1988971393       -0.6200716695       -2.5399371348
 C         10.4762497293       -0.2613072488       -2.1472698746
 C         10.6617065233        0.6884617991       -1.1475024021
 C         12.0460721641        1.0671301828       -0.7145938484
 C          9.5521512890        1.2597833577       -0.5487655628
 C          6.0170854547        0.7004538772       -0.0670320447
 C          6.1623438841       -0.6422850950        0.2755836840
 C          5.0364577996       -1.4440324773        0.4524216161
 C          3.7387200223       -0.8968476222        0.3751170719
 C          3.6215989055        0.4798890523        0.0925209428
 C          4.7460803816        1.2578895184       -0.1724826160
 N          2.3640616962        1.0593523290        0.0490222237
 C          2.2972645738        2.4704271706       -0.0176254711
 C          1.8194251443        3.1492636591       -1.1471284192
 F          1.4527968355        2.4223058282       -2.2218885976
 C          1.7032451439        4.5202682042       -1.1941977141
 C          2.0875675150        5.2752188902       -0.0924632459
 C          2.5890062059        4.6451919882        1.0397620825
 C          2.6847418108        3.2718377089        1.0633953736
 F          3.1654947049        2.6663965379        2.1686245164
 C          1.1839486068        0.3433209529        0.0909486954
 C         -0.0243130965        1.0284044030        0.0311939138
 C         -1.2447815031        0.3653850326       -0.0274089096
 C         -1.2691778927       -1.0528755696       -0.1580010231
 C         -0.0512619767       -1.7031663585        0.0486667829
 C          1.1798325425       -1.0732676826        0.2380309146
 B          2.5138629247       -1.7681413623        0.5613945477
 C          2.8069260516       -3.2077064921        1.0229109374
 C          1.8466433881       -4.1322680013        1.4586176332
 C          2.1612831200       -5.4283330221        1.7963956809
 C          3.4789433659       -5.8792883093        1.7089452220
 C          3.8159249977       -7.3012266091        2.0391479197
 C          4.4592687319       -4.9824605556        1.3315339835
 C          4.1533047610       -3.6513946716        1.0233196669
 N          5.1909255970       -2.7886315140        0.7152457128
 C          6.5237525555       -3.2945122400        0.6937748472
 C          7.2315543027       -3.4595530048        1.8764050996
 C          8.5363866830       -3.9177033095        1.8270126843
 C          9.1308459639       -4.2009128701        0.6109137206
 C          8.4310803331       -4.0371912607       -0.5799776739
 C          9.0921756369       -4.3304509157       -1.8910306094
 C          7.1215286877       -3.5843237830       -0.5255369244
 B         -2.6122926125       -1.7227640307       -0.4985141495
 C         -2.9250514772       -3.1593272596       -0.9566402718
 C         -1.9733675784       -4.1141511258       -1.3441971078
 C         -2.3079728178       -5.4050059729       -1.6823413548
 C         -3.6390798214       -5.8216255297       -1.6406774624
 C         -3.9994989376       -7.2396634406       -1.9626867446
 C         -4.6091620277       -4.8947053199       -1.3130793547
 C         -4.2817035613       -3.5669592540       -1.0116778243
 N         -5.3107915152       -2.6744252293       -0.7609682482
 C         -6.6536858319       -3.1243202655       -0.9203316303
 C         -7.1778018906       -3.2951736535       -2.1953482350
 C         -8.4916631786       -3.7012870146       -2.3410020346
 C         -9.2806831519       -3.9234295523       -1.2263576961
 C         -8.7683324195       -3.7511316474        0.0543049962
 C         -9.6372107424       -3.9538851811        1.2562529395
 C         -7.4455353273       -3.3556819829        0.1960445657
 C         -5.1314023799       -1.3372725993       -0.4719061235
 C         -6.2402633617       -0.5063101847       -0.3234229328
 C         -6.0700612890        0.8312286333        0.0273966755
 N         -7.1924565355        1.6364576349        0.2492473898
 C         -8.3033756688        1.0900667611        0.8978648674
 C         -9.5982169749        1.4218690838        0.4999499272
 C        -10.6801511816        0.8578872060        1.1459809975
 C        -10.4939670581       -0.0349867253        2.1881364563
 C         -9.2099575919       -0.3715770422        2.6015064184
 C         -8.9907750581       -1.2931305873        3.7639170344
 C         -8.1258189682        0.1920640696        1.9496620545
 C         -7.1891000821        2.9694827001       -0.1662523144
 C         -7.8415176939        3.9483509184        0.5831309600
 C         -7.8121844942        5.2648618597        0.1672780785
 C         -7.1354027333        5.6258400106       -0.9846544887
 C         -6.4816918967        4.6617835871       -1.7447649501
 C         -5.7805746272        5.0379047111       -3.0149546262
 C         -6.5171053125        3.3411414233       -1.3308028616
 C         -4.7903001631        1.3584951523        0.1652745910
 C         -3.6792750424        0.5515448236       -0.0682263159
 C         -3.8225756481       -0.8236696394       -0.3483973825
 N         -2.4107582309        1.1045863138       -0.0032783880
 C         -2.3168771611        2.5147484281        0.0450854627
 C         -2.6765166504        3.3080921909       -1.0519173116
 F         -3.1542572473        2.6954446478       -2.1543426481
 C         -2.5567536811        4.6795273479       -1.0458483116
 C         -2.0565047844        5.3160470022        0.0835683672
 C         -1.6977126934        4.5695049141        1.1996409005
 C         -1.8387433816        3.2003092324        1.1703794840
 F         -1.4967400399        2.4819294586        2.2591212807
 C          6.5317979203        3.2349542617        1.2367554107
 H          5.4014034236        5.9661391114        2.7897090336
 H          5.0993594650        4.2627988632        3.1898117051
 H          6.5968831804        5.0424311469        3.6928969706
 H          7.1581989465        6.5450144444        1.0975438216
 H          8.2958351040        5.8385389993       -0.9687482946
 H          8.2980455541        3.4702081949       -1.6403232259
 H          7.0978905295       -0.3172804123       -2.2619288304
 H          9.0610996362       -1.3457776059       -3.3281110882
 H         11.3364619222       -0.7135590130       -2.6192292149
 H         12.0259052055        1.9351763768       -0.0607101960
 H         12.5105733315        0.2409044253       -0.1762042224
 H         12.6685448008        1.2922508724       -1.5789239271
 H          9.6805913674        1.9909098340        0.2367367749
 H          7.1570398377       -1.0439375196        0.3835617216
 H          4.6526449293        2.2919285842       -0.4685271830
 H          1.3190227629        4.9855151607       -2.0872679247
 H          1.9994538362        6.3483469309       -0.1182907056
 H          2.8953841189        5.2097617089        1.9047080919
 H         -0.0141377168        2.1057429954        0.0267983481
 H         -0.0604881396       -2.7787639062        0.0599636710
 H          0.8226279958       -3.8070509790        1.5495432167
 H          1.3872157914       -6.1086165021        2.1225997020
 H          4.8761199284       -7.4954337056        1.8949598404
 H          3.5600452555       -7.5201411493        3.0757435753
 H          3.2468380237       -7.9824802987        1.4072788617
 H          5.4832820369       -5.3229686959        1.2819255137
 H          6.7566306844       -3.2301975192        2.8182711170
 H          9.0926424887       -4.0503873579        2.7430028022
 H         10.1522199081       -4.5512653277        0.5806273307
 H          8.3740034941       -4.2955160752       -2.7061151613
 H          9.5578796981       -5.3144283141       -1.8738583174
 H          9.8718952547       -3.5940057249       -2.0835175282
 H          6.5532632649       -3.4439859151       -1.4336401254
 H         -0.9383675643       -3.8174434019       -1.3983610812
 H         -1.5395594779       -6.1080723168       -1.9715942740
 H         -3.5029843981       -7.9226755244       -1.2737623719
 H         -3.6746151943       -7.4936324908       -2.9714472691
 H         -5.0734777340       -7.3956117537       -1.8936485995
 H         -5.6421360703       -5.2102075158       -1.2952318268
 H         -6.5526504557       -3.1112243121       -3.0559703082
 H         -8.9038042419       -3.8385068151       -3.3295521695
 H        -10.3084467319       -4.2323234212       -1.3494253538
 H        -10.3783824088       -4.7284361191        1.0735617722
 H        -10.1636014270       -3.0261996841        1.4820360722
 H         -9.0437129461       -4.2273711032        2.1248203147
 H         -7.0216722621       -3.2137355733        1.1795290584
 H         -7.2431968341       -0.8772893337       -0.4603806413
 H         -9.7444731086        2.1123278209       -0.3172022137
 H        -11.6811647925        1.1119524569        0.8291466063
 H        -11.3494321675       -0.4665176607        2.6876850485
 H         -8.8330041220       -0.7099221823        4.6719529332
 H         -9.8533479170       -1.9359723197        3.9233456986
 H         -8.1090389255       -1.9106008848        3.6082503536
 H         -7.1222272584       -0.0565132026        2.2639491674
 H         -8.3581546566        3.6712103045        1.4899631690
 H         -8.3147006953        6.0194034093        0.7548577943
 H         -7.1145168324        6.6594357890       -1.2976771184
 H         -6.4978248175        5.0808831368       -3.8353622042
 H         -5.0216164604        4.3031377629       -3.2703816493
 H         -5.3191250513        6.0193354810       -2.9253357376
 H         -6.0196244317        2.5830325975       -1.9180290070
 H         -4.6805759290        2.3912549630        0.4602953323
 H         -2.8441881628        5.2374398741       -1.9215288237
 H         -1.9500198000        6.3877238712        0.0960075972
 H         -1.3144862920        5.0398400278        2.0904716662
 H          6.0436246169        2.4974793592        1.8571859497
