  67
       -114.35369649
 C          8.3210350047       -2.2184915316       -1.3420173842
 O          7.2405931688       -2.9986878623       -0.8925899836
 C          6.0860741889       -2.3650709799       -0.5400942318
 C          5.0526838136       -3.2087382459       -0.1070857903
 C          3.8259744621       -2.7173165741        0.2835260616
 C          3.6326032128       -1.3455465748        0.2438015950
 C          4.6586077939       -0.4895865992       -0.1922172786
 C          5.8913274225       -0.9925291937       -0.5869369946
 C          4.1465689384        0.8537868457       -0.1144512499
 C          4.7196702696        2.0882383531       -0.3532229441
 C          3.9732870393        3.2381426847       -0.1068781536
 O          4.5987839842        4.4161754303       -0.3855002945
 C          3.8948802917        5.6186404211       -0.1904958050
 C          2.6859610716        3.1328021556        0.4229800174
 C          2.1074910482        1.8983960095        0.6650767814
 C          2.8174019393        0.7552774826        0.3508500596
 N          2.4920009163       -0.5894970426        0.5323144212
 C          1.2692615636       -1.1151157793        0.8463454237
 N          1.2632460423       -2.2488762763        1.5507481487
 C          0.0981299120       -2.7859791407        1.8347193829
 N         -1.0883865167       -2.2929872700        1.5536989147
 C         -1.1316647268       -1.1589661992        0.8538574358
 N         -2.3729607509       -0.6659214666        0.5477812471
 C         -3.4820043157       -1.4470739586        0.2206236602
 C         -3.6181644225       -2.8257171048        0.1819129470
 C         -4.8240296370       -3.3435325176       -0.2373767661
 C         -5.8913762273       -2.5182165347       -0.6223334331
 O         -7.0186221581       -3.1787661055       -1.0143244861
 C         -8.1314689785       -2.4215294412       -1.4193932784
 C         -5.7546315483       -1.1389070334       -0.5881769651
 C         -4.5423961659       -0.6073936557       -0.1641856178
 C         -4.0800460459        0.7462171983       -0.0090700951
 C         -4.7138674962        1.9717793920       -0.1703186980
 C         -4.0105349903        3.1244175402        0.1448646214
 O         -4.5014941142        4.3911318673        0.0330994810
 C         -5.8041325825        4.5612539672       -0.4679259396
 C         -2.7053579710        3.0351983019        0.6496546423
 C         -2.0703458702        1.8234411219        0.8092091901
 C         -2.7474755710        0.6714969691        0.4389579265
 C          0.0555484133       -0.5350096386        0.4029165470
 C          0.0225728015        0.4255040972       -0.6216286881
 N         -0.0134279516        1.1304096985       -1.5277684190
 H          9.1209937120       -2.9226850759       -1.5643759062
 H          8.0658898014       -1.6632286287       -2.2503192843
 H          8.6602895801       -1.5186342507       -0.5712372177
 H          5.2494650518       -4.2686263821       -0.0867961626
 H          3.0465848687       -3.3790522586        0.6218308462
 H          6.6585241736       -0.3129845223       -0.9198184661
 H          5.7302257251        2.1844147281       -0.7144431507
 H          2.9787231622        5.6500871550       -0.7887822678
 H          4.5677986085        6.4087584334       -0.5204153358
 H          3.6474918978        5.7745842194        0.8649444229
 H          2.1173191478        4.0167098164        0.6610297993
 H          1.1267675311        1.8595314423        1.1106990674
 H          0.1165428752       -3.7223781740        2.3770073202
 H         -2.8107697055       -3.4723104995        0.4825400042
 H         -4.9782576779       -4.4097249342       -0.2794603835
 H         -8.5011419624       -1.7841232197       -0.6092758911
 H         -7.9010015054       -1.8026065771       -2.2929708877
 H         -8.8999746708       -3.1455086914       -1.6854766626
 H         -6.5523525329       -0.4764619873       -0.8821507510
 H         -5.7335252761        2.0004118545       -0.5179784936
 H         -5.9009259347        4.1584952431       -1.4813359635
 H         -6.5500633405        4.0928220129        0.1829728764
 H         -5.9734344003        5.6365759532       -0.4908067171
 H         -2.2092426173        3.9533354143        0.9193662081
 H         -1.0810346389        1.7915994394        1.2360925368
