67
 energy: -114.271100719276 gnorm: 0.000063789376 xtb: 6.7.1 (edcfbbe)
C            8.24774999054820       -2.39160597730632       -1.30898165444296
O            7.13037377139018       -3.13454463621061       -0.88614552710709
C            5.99739177756618       -2.46837603799714       -0.53783615416867
C            4.92982305875177       -3.28555104799436       -0.12602545568254
C            3.71952023341488       -2.75747861530695        0.26056621835871
C            3.57374517257447       -1.37580999697596        0.23859390417282
C            4.63563948898565       -0.54438392302004       -0.18100670856052
C            5.85180290973473       -1.08587907045492       -0.56945823797243
C            4.15715953998060        0.80909440072886       -0.08894209104277
C            4.74213891604927        2.03481102504826       -0.33445127323782
C            4.00466105197074        3.19631124678247       -0.09508748311762
O            4.64454677388547        4.36191926360416       -0.37751519394672
C            3.95210682534418        5.57594584694765       -0.21190024950436
C            2.71009507537765        3.11045169284381        0.42762706257483
C            2.11985979279267        1.88689595497581        0.68041232986850
C            2.82307173266889        0.73053974072439        0.38413571149464
N            2.47357224190426       -0.59646510219690        0.55014549903112
C            1.23157133806013       -1.09690685173036        0.90027460358485
N            1.18778976716923       -2.18843044200299        1.60998865767645
C            0.00298896811449       -2.71963451710970        1.92989051288824
N           -1.17513394092681       -2.17273561880786        1.60983207200116
C           -1.19910592967518       -1.07826697910587        0.90453896682774
N           -2.43156570956175       -0.54906606462036        0.55993002795415
C           -2.76141525036864        0.78699945263547        0.44648248219116
C           -2.03928516655080        1.92130996324108        0.79847181535077
C           -2.62222781970201        3.15157693041554        0.60627752389707
C           -3.92094925842019        3.28166068524646        0.08498502255813
O           -4.35929711039885        4.56062491715209       -0.05547966347941
C           -5.64571417509051        4.77838059381301       -0.58196196334438
C           -4.66868747124972        2.15032950628727       -0.22043648954746
C           -4.08796384645388        0.90621653221721       -0.02817815809009
C           -4.58800544743037       -0.43350057581394       -0.18410719758633
C           -5.79761889495219       -0.95252718897940       -0.60206430576704
C           -5.96407734056199       -2.33875239557340       -0.63134488999999
O           -7.18544118682287       -2.76788819607244       -1.05191217309785
C           -7.43815810352373       -4.15033321192797       -1.11481099438765
C           -4.91753622851970       -3.18401244879044       -0.24637032635475
C           -3.70230879759371       -2.67422314683385        0.17338346239314
C           -3.53931010082275       -1.29993250310649        0.20931891823437
C            0.02038850075478       -0.45570504316205        0.39498570590930
C            0.01573167856203        0.35728613037315       -0.71046692659794
N            0.00383481289001        1.08289575530467       -1.61970033663614
H            9.02279082948613       -3.12413136898027       -1.52863420851218
H            8.02819720723616       -1.81527774722205       -2.21341768665067
H            8.60103318129040       -1.71580234281308       -0.52349843085498
H            5.09218960684531       -4.35130521261306       -0.12220861590606
H            2.90979816855519       -3.39096701446180        0.58335272979079
H            6.64865611283372       -0.43263143019531       -0.88526767595545
H            5.75109287436948        2.12144105181486       -0.70350565871890
H            3.04381562843384        5.60578891038171       -0.82132619736514
H            4.63762030500850        6.35278784591573       -0.54714693615351
H            3.69388294254837        5.75181143555561        0.83742612495618
H            2.15019796960499        4.00417194570813        0.64900145158464
H            1.13269180800564        1.85237620059644        1.10983979162689
H           -0.00269203601975       -3.61270128562984        2.52954957929631
H           -1.05319249592606        1.84975173493943        1.22606981981932
H           -2.09376630052860        4.05640025182080        0.85898919788572
H           -5.76760375493388        5.85951913298942       -0.62497981527014
H           -5.74194088501626        4.36268657059836       -1.58988703677926
H           -6.42125827878091        4.35290775681834        0.06322782692957
H           -5.67897204770393        2.21374693831793       -0.59023908890810
H           -6.61547368757047       -0.32051019600977       -0.90761677856109
H           -7.35332605265243       -4.62040479703603       -0.12985765577053
H           -8.46279832481583       -4.24530875033872       -1.47105900962080
H           -6.76411446763481       -4.65120982052250       -1.81700587534625
H           -5.04465446792784       -4.25412600039464       -0.27142655046561
H           -2.90320194788015       -3.33080674538285        0.47702935542469
