67
 energy: -114.271027312945 gnorm: 0.000072582635 xtb: 6.7.1 (edcfbbe)
C            8.33057222964297       -2.20833434603273       -1.36041280184097
O            7.23516769018206       -2.98592897028928       -0.94216757422600
C            6.08542214036221       -2.35531534605693       -0.58427066331648
C            5.04046724355700       -3.20622462957339       -0.18255347404539
C            3.81683096524738       -2.71596525240505        0.21162267882135
C            3.63425924460870       -1.33842646272502        0.20824391285511
C            4.67314642265333       -0.47325645546396       -0.20087986085869
C            5.90284301344913       -0.97670377981976       -0.59735727461517
C            4.15890503141347        0.86570344450522       -0.08957670932679
C            4.71064515924030        2.10988290928995       -0.31810556745846
C            3.94281540705447        3.24793880483345       -0.06119564596571
O            4.55099095387374        4.43390279459253       -0.32735886419987
C            3.82687746700462        5.62669966938644       -0.14347316213625
C            2.65175988872314        3.12016619668624        0.46168382145161
C            2.09477144902400        1.87779312487248        0.69742882587367
C            2.82806407132669        0.74496612018962        0.38380750042155
N            2.51436020950427       -0.59302689160481        0.53183818844764
C            1.28685248009772       -1.13101947594303        0.87703375362834
N            1.27306925123219       -2.23218644431865        1.57304485514947
C            0.10403778055540       -2.79852652087148        1.88959416839632
N           -1.08800722852324       -2.27615664446766        1.58137652917827
C           -1.14365789872492       -1.17470808688665        0.88921016753953
N           -2.39053732519633       -0.67145718247761        0.55983976925285
C           -3.48500890854490       -1.44453163390571        0.21689087438428
C           -3.61921057464477       -2.82645127967229        0.17772734448761
C           -4.82615562936359       -3.34666458942187       -0.22977793851705
C           -5.90046717781174       -2.52014651230395       -0.60256295068709
O           -7.02951168738329       -3.18000725819064       -0.97863441408102
C           -8.15224961976908       -2.42908643648753       -1.36987855140669
C           -5.76674637154446       -1.13695096600824       -0.57182922300810
C           -4.55370982846480       -0.60195388495331       -0.16132001011900
C           -4.08459496913621        0.74798451533053       -0.00490965732578
C           -4.69507042134010        1.98060321405118       -0.18505173393444
C           -3.97140572299739        3.12694625723092        0.12053674042263
O           -4.44043581089982        4.39712489942815       -0.00908155480523
C           -5.73522658367261        4.58867511607703       -0.52357258752226
C           -2.66635546793670        3.02430242977602        0.63061484855864
C           -2.05364051196184        1.80645090323277        0.81036375516162
C           -2.75124575755731        0.65795389652547        0.45692519601131
C            0.05813133338862       -0.51646402986397        0.38130635592575
C            0.03083128759377        0.30793099198425       -0.71526534990546
N            0.00012862043984        1.04354402173233       -1.61599891789023
H            9.12391817694906       -2.91721432845327       -1.59191373079172
H            8.09172997411577       -1.62742131201136       -2.25697413197044
H            8.66908873008184       -1.53274959102380       -0.56828767137512
H            5.23127047199539       -4.26718697887355       -0.19309578568763
H            3.02456978939204       -3.37522950688086        0.52603539035355
H            6.68174177849631       -0.29828808630627       -0.90474840258590
H            5.71641641862801        2.22874021368811       -0.68683311298353
H            2.91749510737399        5.64136191652383       -0.75181918314031
H            4.49125788975235        6.42621391263753       -0.46774587692303
H            3.56519936374136        5.78027755945793        0.90847438466183
H            2.06869645586908        3.99538793383666        0.69671646686533
H            1.10974916641666        1.81058299376544        1.12782604713678
H            0.12305154758827       -3.69942767584601        2.47684703935161
H           -2.80360092608566       -3.46700445866422        0.47059518737861
H           -4.98056133569360       -4.41265994815014       -0.27326694779550
H           -8.51280343449370       -1.79136679309359       -0.55608087272218
H           -7.93700527324493       -1.81190690294894       -2.24826214338410
H           -8.92099158217362       -3.15759386836817       -1.62259721813375
H           -6.57183707796931       -0.47916231449512       -0.85684836977071
H           -5.70987200624900        2.02567211948347       -0.54590686505772
H           -5.83084396294821        4.17665727868326       -1.53324321500833
H           -6.49603948348213        4.14287832068145        0.12574056336616
H           -5.88190046965153        5.66699490907625       -0.55974046086537
H           -2.15707421992505        3.93959693789588        0.88474923636388
H           -1.06306419248709        1.75566202272493        1.23030339091964
