  67
       -114.26742766
 C          8.2591740010       -2.4045122912       -1.2738127840
 O          7.1420561093       -3.1430817173       -0.8425478009
 C          6.0073706916       -2.4748278176       -0.5057113499
 C          4.9362453282       -3.2901494858       -0.0971444613
 C          3.7228601024       -2.7590045623        0.2762258712
 C          3.5773967871       -1.3777213433        0.2451771389
 C          4.6437555596       -0.5474756368       -0.1705067090
 C          5.8630396207       -1.0924200540       -0.5459315229
 C          4.1656532310        0.8051092788       -0.0887467796
 C          4.7521397297        2.0305004163       -0.3360831911
 C          4.0136380276        3.1931236101       -0.1051509177
 O          4.6548638384        4.3570020612       -0.3894595899
 C          3.9593551472        5.5715455524       -0.2415395095
 C          2.7161048288        3.1103692899        0.4121118134
 C          2.1237083263        1.8876340503        0.6646330047
 C          2.8272019196        0.7297407087        0.3760743691
 N          2.4759891028       -0.5962322036        0.5450588121
 C          1.2290258587       -1.0960356013        0.8816567393
 N          1.1821303572       -2.1833590410        1.6035102842
 C         -0.0043987516       -2.7112896328        1.9123875311
 N         -1.1787840410       -2.1662453674        1.5859555201
 C         -1.1942912782       -1.0753761641        0.8687003581
 N         -2.4268298252       -0.5439547407        0.5241907729
 C         -2.7601873884        0.7916723153        0.4201149588
 C         -2.0374372059        1.9263170725        0.7688164049
 C         -2.6274994710        3.1561535793        0.5956981171
 C         -3.9351940815        3.2850251373        0.0949465363
 O         -4.3813435639        4.5630301136       -0.0238228982
 C         -5.6822762047        4.7816629403       -0.5129164822
 C         -4.6817691675        2.1536661554       -0.2127970859
 C         -4.0941659745        0.9092969747       -0.0390415880
 C         -4.5915001326       -0.4293607596       -0.1971453580
 C         -5.8050188371       -0.9510734705       -0.6028850056
 C         -5.9669840494       -2.3377940958       -0.6376211373
 O         -7.1919090536       -2.7684632974       -1.0448058919
 C         -7.4413618260       -4.1512325193       -1.1132908583
 C         -4.9129585399       -3.1825100058       -0.2705410422
 C         -3.6943386686       -2.6703451378        0.1373889367
 C         -3.5353643563       -1.2960151199        0.1799282893
 C          0.0254460664       -0.4631265638        0.3652284870
 C          0.0286022924        0.3727144760       -0.7256204545
 N          0.0232793455        1.1048665862       -1.6284891886
 H          9.0341460285       -3.1392054746       -1.4860232678
 H          8.0382722765       -1.8380499621       -2.1841819282
 H          8.6124140817       -1.7200571791       -0.4960381404
 H          5.0983080668       -4.3557992181       -0.0859685710
 H          2.9103593932       -3.3904924031        0.5960874986
 H          6.6629751216       -0.4413314473       -0.8583356798
 H          5.7631520293        2.1154445853       -0.6998897733
 H          3.0545574416        5.5925221859       -0.8564212894
 H          4.6454093889        6.3459078939       -0.5814777367
 H          3.6946415157        5.7587498715        0.8041975573
 H          2.1561067473        4.0051248159        0.6285231059
 H          1.1347365777        1.8554365680        1.0901141007
 H         -0.0151617622       -3.6062296753        2.5101111220
 H         -1.0446817355        1.8559175701        1.1806494303
 H         -2.0988120166        4.0608617341        0.8478929186
 H         -5.8108004613        5.8626089236       -0.5356641552
 H         -5.8032281217        4.3812812629       -1.5242707814
 H         -6.4378010019        4.3415356622        0.1459091831
 H         -5.6966545796        2.2165816127       -0.5698823062
 H         -6.6291784000       -0.3203966607       -0.8939055966
 H         -7.3432660168       -4.6269835678       -0.1323409832
 H         -8.4698979955       -4.2470666667       -1.4578064797
 H         -6.7741680763       -4.6455931984       -1.8264845852
 H         -5.0365722352       -4.2528054999       -0.3010408826
 H         -2.8895669873       -3.3263448926        0.4271230113
