34
 energy: -62.329080895471 gnorm: 0.000087365777 xtb: 6.7.1 (edcfbbe)
Br           5.10307861105271       -1.04332548212834        0.00518725329173
C            3.92620284946129        0.47279989110643        0.00947041630900
C            4.47027486039391        1.74739024738218        0.02633514773126
C            3.55761941780710        2.81441772882804        0.02221140396745
C            2.21190537491326        2.55444714298293        0.00390681589142
C            1.76945749417629        1.20838213193403       -0.01013444086942
C            0.40908414485151        0.85544462829708       -0.01065495302346
N           -0.64339177282335        1.68718324871065       -0.02001790692680
C           -1.72827567669317        0.91615395979650       -0.07641413375032
C           -3.09952050466929        1.31286829109087       -0.04490820641656
C           -3.52680616654363        2.63619242043021       -0.03520924294198
C           -4.88471634880266        2.92071912664643        0.03217586908277
C           -5.77392108994234        1.85225759016128        0.05381879328678
N           -5.37628826558629        0.60287683163342        0.05895570310348
C           -4.08312402550430        0.28046124149871        0.01665889775429
C           -3.70571722022139       -1.10439551403926       -0.00432863123435
N           -4.64967393291086       -2.03693489008877        0.00838651658321
C           -4.37348164513117       -3.30719838587028        0.02009074889104
C           -3.04452467870167       -3.78776987044189        0.05763932713084
C           -2.02747524596807       -2.87725755808967       -0.02241850957640
C           -2.31051065319469       -1.49431340896027       -0.06345029753422
C           -1.36871452381082       -0.46770883567245       -0.08455475580571
N           -0.00883135766731       -0.47093167572317       -0.00734347431387
N            2.65861607973170        0.17477944828904       -0.01109249924723
H            5.53554228644173        1.90325363015885        0.03635735174443
H            3.92738576668805        3.82829936191901        0.03366556159585
H            1.46969994941911        3.33503533118368        0.00739970806101
H           -2.78579195201671        3.41871683633947       -0.09525914190760
H           -5.24698961988336        3.93507945367844        0.05140532797028
H           -6.84415492253304        2.00712357589669        0.07313536707298
H           -5.21260152340642       -3.98689210683083       -0.01923096718359
H           -2.85696119994538       -4.84804623826241        0.09263488973058
H           -0.99864190199341       -3.20373914076747       -0.07784767314812
H            0.63179815898841       -1.24403109462962       -0.02885352256164
