34
 energy: -62.329081204346 gnorm: 0.000040808581 xtb: 6.7.1 (edcfbbe)
Br           5.10993364519957       -1.03405545915762        0.03009345895198
C            3.93147727536691        0.48085911598690        0.02394918650706
C            4.47413567756942        1.75608944338193        0.03897791788655
C            3.56034628685821        2.82210178686422        0.02696654827437
C            2.21499203065431        2.56064259118755        0.00397497861236
C            1.77401942994967        1.21404059927947       -0.00696667110206
C            0.41408421754339        0.85950402225357       -0.01026494279298
N           -0.63945718331443        1.68988222992606       -0.02379480131541
C           -1.72325204799027        0.91732782376609       -0.07954663349130
C           -3.09506197224042        1.31232996536246       -0.05053275601270
C           -3.52403527974580        2.63515335921688       -0.04406493318435
C           -4.88236988024372        2.91802493689499        0.02137806738233
C           -5.77021959062055        1.84847486899364        0.04443951041629
N           -5.37103370359417        0.59959079630812        0.05250637755883
C           -4.07739728953733        0.27885266302671        0.01228751399145
C           -3.69820610826803       -1.10562039952436       -0.00493382412540
N           -4.64097523264339       -2.03927694887128        0.00880025183631
C           -4.36322527083380       -3.30917611003116        0.02437092067773
C           -3.03372316652169       -3.78793367854155        0.06545823511262
C           -2.01770120043487       -2.87638489042066       -0.01557024809427
C           -2.30241651933881       -1.49388118630714       -0.06095296685727
C           -1.36193492059578       -0.46615397502110       -0.08332833318442
N           -0.00216349826612       -0.46739768036597       -0.00409102437463
N            2.66432441609300        0.18140409797302       -0.00108754047611
H            5.53917900573409        1.91311277187949        0.05332415853490
H            3.92896844812676        3.83642095738500        0.03631953434445
H            1.47196129679938        3.34043661467612        0.00159480786014
H           -2.78396848089673        3.41852017825000       -0.10483733036103
H           -5.24598884015554        3.93194948996375        0.03817598696490
H           -6.84067018373312        2.00201252967646        0.06239633780454
H           -5.20141374328538       -3.99002276553228       -0.01466252382051
H           -2.84487318371232       -4.84786915984878        0.10372743969038
H           -0.98837738264029       -3.20172684092685       -0.06854555638292
H            0.63957423700809       -1.23967097724208       -0.02163516356969
