34
 energy: -62.404745609380 gnorm: 0.000039920625 xtb: 6.7.1 (edcfbbe)
Br           5.72948603814140        3.04586505769448       -0.00005071913109
C            4.98110435190167        1.29086114705694        0.00000714365802
C            5.82086657846111        0.18593801751139       -0.00001148018539
C            5.20311206986519       -1.05476593594747       -0.00002717656688
C            3.81987878014483       -1.13266760090764       -0.00001648969650
C            3.07482561718786        0.05222970795085       -0.00001826973277
C            1.62561549425597        0.07219202899875       -0.00001041260373
N            0.88992355283433        1.16014659635879       -0.00000305807784
C           -0.39925514078720        0.74437195347134       -0.00000030575775
C           -1.59331855707603        1.52260390633184        0.00000318911662
C           -1.60812581757412        2.92254104946354        0.00000085945177
C           -2.82109028274713        3.57137978960622        0.00000353487334
C           -3.98616378549099        2.79734768206840        0.00000929088547
N           -3.99436602508348        1.48660054153934        0.00001373279891
C           -2.82922830571917        0.83176795735446        0.00001005247168
C           -2.87037414960129       -0.61994983133186        0.00001342055237
N           -4.06636528658010       -1.21088983046960        0.00002038214183
C           -4.13587833443839       -2.51980346284763        0.00002149754038
C           -3.01712503001553       -3.35809954258934        0.00001743233774
C           -1.76990598082146       -2.77848688585204        0.00001061755017
C           -1.66908576412111       -1.37991674106146        0.00000817185378
C           -0.45145218808029       -0.65310847833111        0.00000147675343
N            0.84995486810135       -1.06277726729082       -0.00000294451122
N            3.67662306647125        1.24234450041456       -0.00001285347943
H            6.89242903744632        0.29752120889350       -0.00001527455240
H            5.79926637085373       -1.95468359697216       -0.00001383655447
H            3.33931096957067       -2.09772380308405       -0.00000620832695
H           -0.66786617232087        3.45313871050444       -0.00000381787008
H           -2.88072672188690        4.64843478390122        0.00000143008830
H           -4.96213549426628        3.26622567637094        0.00000945038218
H           -5.13651553687756       -2.93231018384835        0.00002505882038
H           -3.13586574661528       -4.43003710496910        0.00001824308012
H           -0.87772084609793       -3.38885744605077        0.00000786710716
H            1.17017037096018       -2.01743560394279       -0.00000700441890
