  92
       -138.90229763
 C         -8.0332640391       -7.4914712703        0.2187993394
 C         -8.7916523759       -6.3335207032        0.2698140190
 C         -8.1758035605       -5.0966247927        0.2422010048
 C         -6.7872051974       -4.9958734177        0.1688763164
 C         -6.1294897843       -3.6852013786        0.1383956807
 C         -6.6738404232       -2.6251764927       -0.5888995250
 C         -6.0501497249       -1.3980711621       -0.6345913349
 C         -4.8558293193       -1.1856725144        0.0594327585
 N         -4.2101787556        0.0485010224        0.0044570606
 C         -4.9516744476        1.2274053748       -0.0385506983
 C         -4.5041567213        2.3211990809       -0.7847167102
 C         -5.2322585607        3.4895912216       -0.8139340889
 C         -6.4325816854        3.6101318379       -0.1109904690
 C         -7.2047070760        4.8567500143       -0.1450386950
 C         -6.5609186705        6.0930498871       -0.1094780980
 C         -7.2889631418        7.2673259704       -0.1355026701
 C         -8.6718621758        7.2289144658       -0.2040439307
 C         -9.3225477390        6.0067480934       -0.2439358779
 C         -8.5970570200        4.8309867537       -0.2116638024
 C         -6.8762780562        2.5117942367        0.6275720345
 C         -6.1507680111        1.3419197944        0.6701147566
 C         -2.8168482433        0.0997045557       -0.0056133716
 C         -2.0701888429       -0.8775805048       -0.6786266481
 C         -0.7003252082       -0.8352411013       -0.6759778674
 C          0.0087996490        0.1841941089       -0.0082139004
 C          1.4489442447        0.2169428270       -0.0013482093
 C          2.2146709630       -0.9610663737       -0.1405028313
 C          3.5786466993       -0.9323498622       -0.1254508754
 C          4.2949078965        0.2809171800        0.0109777997
 C          5.7211858579        0.2549647130        0.0055334718
 C          6.5415151790        1.3979839187        0.1151720573
 C          7.9122037834        1.2274980873        0.0911469839
 C          8.8633151230        2.3247939836        0.2130032240
 C         10.1984121475        2.0335217881        0.5174752737
 C         11.1299736052        3.0417362624        0.6462408456
 C         10.7561133459        4.3654367620        0.4704960948
 C          9.4389749443        4.6669980131        0.1594406895
 C          8.5010258956        3.6625212622        0.0305029729
 N          8.4361926186       -0.0171611273       -0.0261805050
 C          7.6335817868       -1.0655387023       -0.1276698218
 C          8.2321671016       -2.3953339902       -0.2537157196
 C          9.6137500509       -2.5342889065       -0.3622683453
 C         10.1786508651       -3.7896218293       -0.4781451509
 C          9.3723092293       -4.9168920699       -0.4863285779
 C          7.9964438151       -4.7850633660       -0.3801717983
 C          7.4271542116       -3.5319122240       -0.2648900385
 N          6.3286976252       -0.9540790629       -0.1160122166
 C          3.5297844863        1.4612819146        0.1420960477
 C          2.1630272672        1.4245990554        0.1462190451
 C         -0.7586660640        1.1642721810        0.6532838037
 C         -2.1292873502        1.1246677505        0.6586630082
 C         -4.3114371216       -2.2389669762        0.7992218946
 C         -4.9377167090       -3.4648352912        0.8314137491
 C         -6.0343945057       -6.1686302874        0.1213780179
 C         -6.6529253749       -7.4041637294        0.1432013794
 H         -8.5155397851       -8.4572906314        0.2378383732
 H         -9.8681985351       -6.3953338154        0.3336110089
 H         -8.7728685383       -4.1980973151        0.3016079082
 H         -7.5813377053       -2.7781511144       -1.1537466921
 H         -6.4705001897       -0.5963145546       -1.2238585932
 H         -3.5887120633        2.2353033984       -1.3510225177
 H         -4.8833924647        4.3152049111       -1.4160357739
 H         -5.4836983759        6.1303966354       -0.0364575392
 H         -6.7761483974        8.2173271215       -0.0992468980
 H         -9.2396701521        8.1470305903       -0.2257202033
 H        -10.4006883284        5.9703153756       -0.3016180060
 H         -9.1104984675        3.8815919710       -0.2615259426
 H         -7.7869633857        2.5902443455        1.2024785670
 H         -6.4954719247        0.5101143609        1.2667235052
 H         -2.5888006981       -1.6543955254       -1.2219008568
 H         -0.1552745979       -1.5798767696       -1.2347017033
 H          1.7104921121       -1.9130826094       -0.2183307573
 H          4.1483108963       -1.8445052293       -0.2142710270
 H          6.1057385809        2.3745068897        0.2344984142
 H         10.4800098166        1.0013080759        0.6570319421
 H         12.1553519189        2.7982037253        0.8847151622
 H         11.4850991291        5.1558801599        0.5703448203
 H          9.1431192329        5.6959528246        0.0119472133
 H          7.4869188818        3.9224313763       -0.2327688897
 H         10.2265378953       -1.6459113268       -0.3575950893
 H         11.2506827453       -3.8931598506       -0.5625371089
 H          9.8157531950       -5.8978549434       -0.5757752143
 H          7.3685783636       -5.6642046412       -0.3871568908
 H          6.3579432916       -3.4127861424       -0.1803889837
 H          4.0227218469        2.4167041542        0.2377383549
 H          1.6171093015        2.3536283369        0.2226433769
 H         -0.2586019486        1.9429331811        1.2078628511
 H         -2.6921584569        1.8707833701        1.2009995620
 H         -3.4006142358       -2.0782691850        1.3566123771
 H         -4.5139362008       -4.2592540124        1.4273205873
 H         -4.9586180756       -6.1079536027        0.0428460803
 H         -6.0561628173       -8.3034718153        0.0988017774
