  69
       -110.97746186
 C          6.8290295180        0.5359730090        1.0715576272
 C          6.2985916964        1.5643618065        0.3078426206
 C          4.9831679370        1.5092988190       -0.1103066933
 C          4.1877352278        0.4174696929        0.2320880572
 C          2.7935378948        0.3617564045       -0.2003961914
 N          2.2665848394        1.4491167213       -0.7528496742
 C          0.9823550187        1.3716680629       -1.0862658107
 C          0.3471530815        2.5398316286       -1.6905909829
 C          1.0589313602        3.7284341196       -1.8381529187
 C          0.4430195682        4.8382700704       -2.3836456978
 C         -0.8831415962        4.7716588712       -2.7832174659
 C         -1.5949852488        3.5901167620       -2.6399775948
 C         -0.9851530919        2.4760250455       -2.0972166013
 N          0.2268950979        0.2989446868       -0.8847601374
 C          0.8470881346       -0.7424821168       -0.3416494713
 N          0.0966880135       -1.8734076971       -0.1528471926
 C          0.5494047963       -3.1577690833       -0.4619510704
 C          1.8437687493       -3.6368256638       -0.5495519742
 C          2.0145888655       -4.9640848650       -0.9045986343
 C          0.9273250232       -5.7898225172       -1.1717303120
 C         -0.3657392872       -5.3083665478       -1.0971483338
 C         -0.5600478250       -3.9815418667       -0.7391242831
 C         -1.7411917500       -3.1755721256       -0.5663269405
 C         -3.0931875379       -3.4765104711       -0.7313868589
 C         -4.0297461778       -2.5004014754       -0.4815268149
 C         -3.6146402560       -1.2662523403        0.0177483848
 C         -4.3627770467       -0.1293395554        0.4689500547
 C         -5.7220544966        0.1565750009        0.5029737625
 C         -6.1333523012        1.3458379666        1.0682386868
 C         -5.2083995246        2.2312114018        1.6174350511
 C         -3.8524229110        1.9670614670        1.5954635172
 C         -3.4277342622        0.7911509990        0.9925756398
 N         -2.1507919154        0.2782427407        0.8493816495
 C         -1.0093219841        0.8107439057        1.4667061629
 C         -0.6882628329        2.1579915551        1.3244074797
 C          0.4613945234        2.6584436749        1.9057532086
 C          1.2973930900        1.8288901064        2.6353943419
 C          0.9661172036        0.4950476459        2.8009922235
 C         -0.1866507445       -0.0132640781        2.2306900437
 C         -2.2486610255       -0.9627222914        0.2448798257
 C         -1.3014359134       -1.8980412040       -0.1628908747
 N          2.1279826934       -0.7721497821        0.0016178485
 C          4.7247280026       -0.6124473196        1.0023837332
 C          6.0402689514       -0.5500832141        1.4190457237
 H          7.8580170387        0.5813904586        1.3975241603
 H          6.9152000719        2.4093455231        0.0385015980
 H          4.5521348204        2.2984526912       -0.7065730300
 H          2.0879796989        3.7606088032       -1.5152676776
 H          0.9946633154        5.7601255745       -2.4972411179
 H         -1.3631262267        5.6415183181       -3.2074861245
 H         -2.6283273741        3.5401308856       -2.9512920464
 H         -1.5226188654        1.5474493932       -1.9780327961
 H          2.6849979838       -2.9938726670       -0.3482999273
 H          3.0143372533       -5.3663181016       -0.9736429271
 H          1.0995862280       -6.8208009687       -1.4433274905
 H         -1.2096752969       -5.9462371056       -1.3117190090
 H         -3.3880847031       -4.4608718387       -1.0594951344
 H         -5.0814434843       -2.6884995233       -0.6325736311
 H         -6.4373868045       -0.5435201726        0.0986648976
 H         -7.1844290102        1.5912377639        1.1015092563
 H         -5.5593630192        3.1438353074        2.0762957631
 H         -3.1542751513        2.6525950110        2.0498475877
 H         -1.3112117477        2.7948642553        0.7148065488
 H          0.7151795875        3.6991819481        1.7689679721
 H          2.2058963624        2.2192648834        3.0684556971
 H          1.6098686340       -0.1570949799        3.3723768137
 H         -0.4498117258       -1.0522945896        2.3675415464
 H          4.0940752841       -1.4464628603        1.2701205547
 H          6.4542410086       -1.3476443330        2.0184962615
  69
       -110.97733353
 C          3.5193953545        1.2447574867        4.2095271811
 C          2.5393773788        0.2830788257        4.0155207837
 C          2.0137631334        0.0744068303        2.7554185530
 C          2.4659461086        0.8345144515        1.6774365354
 C          1.8903725270        0.6328246596        0.3503948783
 N          2.3274045570        1.3867982562       -0.6528641873
 C          1.7728329278        1.1609310776       -1.8391932820
 C          2.1560417706        2.0243228611       -2.9532131647
 C          3.1651396773        2.9715451615       -2.7902098328
 C          3.5036516422        3.8077065607       -3.8361521074
 C          2.8395084556        3.7080455460       -5.0490604297
 C          1.8334286587        2.7688156294       -5.2156889271
 C          1.4905558574        1.9289522047       -4.1741892246
 N          0.8649096782        0.2170140752       -2.0720558835
 C          0.4628730792       -0.4526736854       -1.0001120913
 N         -0.5016533215       -1.4137482539       -1.1581572726
 C         -0.4930760923       -2.3540045166       -2.1894711245
 C          0.1136232106       -2.2911620874       -3.4306197028
 C         -0.0126486145       -3.3900847285       -4.2630966052
 C         -0.7175394916       -4.5225893372       -3.8678166557
 C         -1.3128514546       -4.5910505696       -2.6227075013
 C         -1.2019764935       -3.4990348834       -1.7730979251
 C         -1.6860975749       -3.2378329308       -0.4419002195
 C         -2.4224754322       -4.0252402514        0.4434913053
 C         -2.7642867855       -3.5083817968        1.6717761256
 C         -2.4478332668       -2.1829844221        1.9690902290
 C         -2.7734567308       -1.3622570537        3.0990301509
 C         -3.4450309972       -1.6120855828        4.2894958840
 C         -3.6484847820       -0.5662565500        5.1658852640
 C         -3.2119697607        0.7197529957        4.8549817445
 C         -2.5431717331        0.9915396937        3.6769556266
 C         -2.3013622397       -0.0629867963        2.8076142735
 N         -1.6800903722       -0.0676234294        1.5713065459
 C         -1.3255675890        1.0899486032        0.8618465824
 C         -1.7711000580        1.2647551858       -0.4457654072
 C         -1.3910900463        2.3841605547       -1.1636047610
 C         -0.5836252103        3.3459500003       -0.5812488630
 C         -0.1657299495        3.1893066954        0.7303954041
 C         -0.5334639049        2.0702736038        1.4534414070
 C         -1.7493637325       -1.3511110667        1.0586256457
 C         -1.2709894907       -1.9312020766       -0.1126763061
 N          0.9356920321       -0.2818616741        0.2288283422
 C          3.4509914891        1.7992619791        1.8771528459
 C          3.9750544805        1.9996460076        3.1395795036
 H          3.9293722352        1.4049848442        5.1961502392
 H          2.1847460828       -0.3035560712        4.8503838594
 H          1.2509990592       -0.6699843837        2.5846224399
 H          3.6687838457        3.0342672411       -1.8382113926
 H          4.2859403444        4.5415330614       -3.7085444501
 H          3.1048630635        4.3644528592       -5.8649884688
 H          1.3153654600        2.6947605403       -6.1606748159
 H          0.7031730208        1.1988507900       -4.2826623672
 H          0.6637327592       -1.4145601357       -3.7321329577
 H          0.4453656909       -3.3660382455       -5.2407185413
 H         -0.7967295262       -5.3598841977       -4.5453408493
 H         -1.8527407881       -5.4728553281       -2.3126297071
 H         -2.7072412748       -5.0269214346        0.1621185599
 H         -3.3045037842       -4.1024363399        2.3925862645
 H         -3.8027733054       -2.6049524075        4.5165272106
 H         -4.1638867382       -0.7383319087        6.0991106328
 H         -3.4051399096        1.5249833477        5.5484394995
 H         -2.2358194182        1.9985271894        3.4414477279
 H         -2.4084939804        0.5180299953       -0.8973145588
 H         -1.7236442166        2.5004980512       -2.1843869146
 H         -0.2755386259        4.2107854434       -1.1492327564
 H          0.4699229614        3.9321137351        1.1890309738
 H         -0.1672501114        1.9270145475        2.4589157898
 H          3.7880567464        2.3793018091        1.0322687544
 H          4.7386297899        2.7478609031        3.2943073370
  69
       -110.97633935
 C          6.7374883757        0.3579829415        1.4127013607
 C          5.9278603320       -0.7523144752        1.5969201278
 C          4.6434833934       -0.7647525929        1.0889058039
 C          4.1596014675        0.3389801353        0.3879579014
 C          2.7964505862        0.3332151592       -0.1365752192
 N          2.3340759960        1.4383569664       -0.7100975412
 C          1.0689546554        1.4024695633       -1.1162487718
 C          0.5325256233        2.5783023978       -1.7957692634
 C          1.2960806099        3.7402887686       -1.8880742744
 C          0.7906301418        4.8489908632       -2.5385360642
 C         -0.4758531164        4.8069623544       -3.1013810931
 C         -1.2402048609        3.6537237609       -3.0097069491
 C         -0.7417009216        2.5415932910       -2.3591893897
 N          0.2597563053        0.3619450933       -0.9444663029
 C          0.8233320450       -0.7059847587       -0.3926079541
 N          0.0544953982       -1.8345015116       -0.2576951254
 C          0.5234845366       -3.0957367755       -0.6327744967
 C          1.8213096179       -3.5353652093       -0.8273844157
 C          2.0030919012       -4.8420255765       -1.2453281104
 C          0.9233080219       -5.6903122279       -1.4702303836
 C         -0.3728033837       -5.2503907892       -1.2865009193
 C         -0.5764804690       -3.9432974484       -0.8648446637
 C         -1.7630344751       -3.1812191861       -0.5838502957
 C         -3.1062828505       -3.5518772245       -0.6353360377
 C         -4.0621935045       -2.6389689359       -0.2613531962
 C         -3.6611372462       -1.3933871091        0.2190668765
 C         -4.4318635385       -0.3214799912        0.7750336275
 C         -5.7929983639       -0.1457731580        0.9947756668
 C         -6.2153334925        0.9989994564        1.6376200479
 C         -5.2972062792        1.9523021404        2.0743036345
 C         -3.9405454458        1.7988058459        1.8649513918
 C         -3.5112652081        0.6627658948        1.1920399951
 N         -2.2268890305        0.2464945446        0.8906992830
 C         -1.0876778151        0.9286108294        1.3453801171
 C         -0.9383462570        2.2848273433        1.0695719752
 C          0.1772345952        2.9623428922        1.5234409179
 C          1.1485294231        2.2984050213        2.2548741598
 C          0.9949656250        0.9524465691        2.5413617752
 C         -0.1231407645        0.2675571008        2.0998748600
 C         -2.2980329459       -1.0044618599        0.3023569197
 C         -1.3410255204       -1.8927221396       -0.1879458444
 N          2.0873300424       -0.7823689349        0.0028288763
 C          4.9765102759        1.4535240817        0.2077496460
 C          6.2597869959        1.4593955297        0.7190558041
 H          7.7414627991        0.3651665724        1.8115549519
 H          6.3010329657       -1.6087330756        2.1393361455
 H          3.9971245286       -1.6176577965        1.2297145616
 H          2.2795043797        3.7511793805       -1.4444124758
 H          1.3833311852        5.7492486279       -2.6106573211
 H         -0.8675036649        5.6740563540       -3.6131762902
 H         -2.2257304834        3.6229309093       -3.4511420482
 H         -1.3186269223        1.6325935016       -2.2817778587
 H          2.6604337113       -2.8802547447       -0.6587142843
 H          3.0065843294       -5.2097555535       -1.3998670825
 H          1.1046864036       -6.7039546928       -1.7956635104
 H         -1.2128490554       -5.9033536323       -1.4682971445
 H         -3.3763649126       -4.5436508613       -0.9621978667
 H         -5.1126006382       -2.8818807019       -0.3020617849
 H         -6.4995505731       -0.8973472549        0.6766927901
 H         -7.2678641374        1.1564249611        1.8208956552
 H         -5.6539794475        2.8284679453        2.5954830210
 H         -3.2410156847        2.5341026523        2.2320798719
 H         -1.6758585078        2.7891517571        0.4632358393
 H          0.2953458295        4.0099153431        1.2886091757
 H          2.0273868809        2.8257650012        2.5936076260
 H          1.7510846187        0.4294886312        3.1085393081
 H         -0.2498240242       -0.7808581793        2.3300707960
 H          4.5862566627        2.3002796347       -0.3351940082
 H          6.8918614728        2.3242077212        0.5800559821
