59
 energy: -91.220785127654 gnorm: 0.000039633814 xtb: 6.7.1 (edcfbbe)
O           -1.93007840772917       -0.54431021769559       -2.04915211854382
P           -2.71266119144822       -0.17064971405567       -0.85528269046032
C           -4.03642579469872       -1.36400948733798       -0.47214608989033
C           -3.83024775708738       -2.67795759612567       -0.87126438780987
C           -4.78467348080563       -3.64271960275337       -0.60241880493837
C           -5.94741329077491       -3.29389804858829        0.06635365241840
C           -6.15704945485943       -1.98162131021953        0.46053799170650
C           -5.20428697714107       -1.01414528739628        0.19333212494387
C           -3.53721565076844        1.44640311551555       -1.02026773481817
C           -3.87967050309946        1.84549544372977       -2.30546276719223
C           -4.52497558430241        3.05231489091606       -2.50819449207761
C           -4.82790972082528        3.86192069426869       -1.42476486881707
C           -4.48116968131652        3.46749712244818       -0.14197590667244
C           -3.83538835776920        2.26097779989214        0.06448290311967
C           -1.69565795149907       -0.06400274305323        0.65319389618036
C           -2.20714740534882       -0.25907247462246        1.93009238683262
C           -1.36558400668916       -0.14393688577772        3.02285239613016
C           -0.02536340925115        0.15339341112222        2.84549442863347
C            0.50232354127545        0.33024591840517        1.56800675937807
C            1.92869624207434        0.65569525821393        1.39054033512846
C            2.44119227280927        1.77260618376284        2.04467077037503
C            3.75648093648000        2.15717029246515        1.88853805243950
C            4.61892950587438        1.42560764173384        1.07030686775972
C            5.98005281650052        1.80374406903802        0.87695994784307
C            6.80473798359475        1.07943434516570        0.08598519886813
C            6.34386790594387       -0.09418633622038       -0.58085487187300
C            7.17827169838385       -0.85800418498782       -1.39915651219862
C            6.70385263654947       -1.99440078896415       -2.02898442314652
C            5.39180129036817       -2.39671262661563       -1.85791620944884
C            4.52098152565525       -1.66167363840025       -1.05131993784963
C            3.16668381658276       -2.05215267923474       -0.83946965902435
C            2.33476090475957       -1.32226572185090       -0.06069588731904
C            2.77259898156286       -0.12341776505569        0.57893438851580
C            4.12655245169860        0.26891069473425        0.41557363516781
C            4.99514686490988       -0.49394199197211       -0.40443285099001
C           -0.35224273119976        0.22757734678876        0.47461324475010
H           -2.91992615914874       -2.92247290568198       -1.40165102474740
H           -4.62280589558686       -4.66422235738770       -0.91428629238802
H           -6.69442413941321       -4.04521435422979        0.27623627953416
H           -7.06688541733494       -1.71053553552297        0.97608949792609
H           -5.36881239090612        0.01200830520292        0.48984930882309
H           -3.62261287486822        1.20057584534422       -3.13478913848721
H           -4.79058406921969        3.36118849165752       -3.50863451403362
H           -5.33123560460311        4.80476141559776       -1.58067305829138
H           -4.71289473714552        4.10313171649807        0.70024776963721
H           -3.55423095489644        1.95489343392996        1.06207450077805
H           -3.25014461948011       -0.50701235436051        2.06364634675454
H           -1.75591982927769       -0.29222004035543        4.01926253429220
H            0.62903956585845        0.22993516509188        3.70175678060628
H            1.78149089079529        2.35892763811251        2.66884584782855
H            4.12749187099873        3.03573814252113        2.39688281696232
H            6.33673383501651        2.69067732809916        1.38183361039923
H            7.83498814351155        1.37455866312004       -0.05620741196451
H            8.20535449718395       -0.55074974151824       -1.53683306813869
H            7.36432643369315       -2.57339550219809       -2.65880917398982
H            5.02771631831863       -3.28743748081153       -2.35017269183164
H            2.81620969967239       -2.95721810305420       -1.31581308821700
H            1.31673309029943       -1.64784479718911        0.09527612429553
H            0.01862332810394        0.37600889985122       -0.53083872288849
