59
 energy: -91.145437048971 gnorm: 0.000055576034 xtb: 6.7.1 (edcfbbe)
O           -2.60318365559638       -0.04696227894602       -2.29540536596765
P           -2.86352069838328       -0.13215759955680       -0.84454885685211
C           -2.32300431138149       -1.71169148775106       -0.11566282006631
C           -2.26225880900198       -2.81444860726570       -0.95649295499525
C           -1.87338466104806       -4.04564460248286       -0.45893625178716
C           -1.54781254239687       -4.17498395059888        0.88190305619118
C           -1.60325757785137       -3.07360903979411        1.72217621654850
C           -1.98834660019333       -1.84073335811006        1.22650657986185
C           -4.62794755338738        0.03143544430247       -0.42953295142682
C           -5.13187409528266       -0.27736924005465        0.82840268729833
C           -6.48457510098179       -0.13405027971085        1.07832079359368
C           -7.33431663881318        0.31437289207671        0.07819892259489
C           -6.83321721020065        0.61850140691592       -1.17729061553388
C           -5.48021951052467        0.47562741976585       -1.43109591318577
C           -1.96490510188265        1.13827370681331        0.10759419792690
C           -2.57288003050906        2.09070508220544        0.91580240211580
C           -1.77845364749253        3.03515866653287        1.55244262412474
C           -0.40840636413812        3.02210773536833        1.39908273424744
C            0.22648964692613        2.05337206799485        0.60083600839483
C            1.66282949462936        2.05004118961831        0.43211120514426
C            2.33919360872698        3.26915792596230        0.26352674757603
C            3.66038156448254        3.32355686608926       -0.07615483172330
C            4.42762918719387        2.12472938452006       -0.24660287793524
C            5.76770786688898        2.15751425802478       -0.62053631978991
C            6.50118159545677        0.98411399339897       -0.76027684171986
C            5.91806355652029       -0.25791865076922       -0.49495867479698
C            6.65181000134673       -1.47321444065693       -0.60363687305731
C            6.05532258652571       -2.68793241424800       -0.32199433965733
C            4.73821466120133       -2.75169134027745        0.08159457376499
C            3.95817021814058       -1.56415524651615        0.20564204864531
C            2.63286083001693       -1.58746525129640        0.63868143547353
C            1.88884662584724       -0.41449411765002        0.73694390790616
C            2.42642106329557        0.81901233534375        0.37353620028259
C            3.79663533232680        0.87694539879253        0.00084689718677
C            4.55534109649332       -0.31278205468548       -0.09820006736191
C           -0.59132209286521        1.12168105550533       -0.05295818274581
H           -2.51359272094973       -2.68419628446140       -2.00043755309606
H           -1.82426108574402       -4.90223389433976       -1.11532042671143
H           -1.24458104300495       -5.13527961920713        1.27269669870427
H           -1.33993331665029       -3.17512644445031        2.76509451524661
H           -2.01757568829738       -0.97492315863642        1.87386651907083
H           -4.46638715219120       -0.63017255664815        1.60251972587953
H           -6.87870488521693       -0.37365365086886        2.05516834202327
H           -8.39012799684669        0.42364640068854        0.27803434952281
H           -7.49475877924153        0.96493414602338       -1.95786169061352
H           -5.06385015080511        0.69950618913177       -2.40367093681464
H           -3.64598198240140        2.09693968364753        1.03821081409568
H           -2.24023024718760        3.78299973007571        2.18100584984653
H            0.19460774129582        3.74472422693542        1.92837564892485
H            1.77261114874016        4.18662005101614        0.33452557401688
H            4.14619598076234        4.27245804217544       -0.24783845928643
H            6.24162366247052        3.11136673169527       -0.80309250259688
H            7.53583879416307        1.02846503712591       -1.06770230815432
H            7.68743921314275       -1.42690172971913       -0.90536809631247
H            6.63158308631905       -3.59803992510556       -0.41248342363274
H            4.27601739074494       -3.69980261519430        0.31186037111965
H            2.17765895269474       -2.53079277378608        0.90264716561279
H            0.88048371436979       -0.46990082951933        1.11727145083750
H           -0.16135617299388        0.40330278621673       -0.73962020979633
