59
 energy: -91.145998833400 gnorm: 0.000034815540 xtb: 6.7.1 (edcfbbe)
O           -4.47352444480372       -0.36583162787421        1.75673987785026
P           -3.39918179571108       -0.26937196848220        0.74935494258532
C           -4.02931243184935        0.04916671177918       -0.93139738942990
C           -3.29108133075118        0.70823852181728       -1.90594498983719
C           -3.83558455467000        0.90292125672293       -3.16326011882432
C           -5.11159235296953        0.44317518525548       -3.44899724479433
C           -5.85085235991659       -0.20963844080253       -2.47525207799521
C           -5.30962018973442       -0.40603706001172       -1.21733619296345
C           -2.40616154753408       -1.79337521853865        0.62711310402136
C           -1.72275333934575       -2.16446766894996       -0.52390742138268
C           -0.98325880455200       -3.33405202589877       -0.53497261924487
C           -0.92558165861266       -4.13276461262752        0.59636782392162
C           -1.60975055002051       -3.76513244044093        1.74418890224151
C           -2.35026319626489       -2.59657546788990        1.75850951890810
C           -2.21910765314763        1.07488164039855        1.09773604043052
C           -2.70775461610889        2.17214102896114        1.80092125426049
C           -1.86867777025559        3.24595044676879        2.05612509648092
C           -0.55887796826041        3.22382264321248        1.62376600535930
C           -0.03803748851752        2.11249224087412        0.93809787468611
C            1.33194645514042        2.09965542247420        0.47311959178953
C            1.87846528809837        3.26185253578442       -0.09534822955682
C            3.09087418431369        3.25949599380693       -0.72315077622831
C            3.87664981287426        2.06319843292248       -0.80471296558080
C            5.09802525406377        2.03000285213354       -1.47103566418912
C            5.85591681967602        0.86475088527077       -1.51924129801086
C            5.42616743869031       -0.29407554205054       -0.86658062298813
C            6.19541220347139       -1.49208382233101       -0.87276128955721
C            5.75375723725873       -2.62036258961414       -0.20724100503119
C            4.56367860327729       -2.60961628975312        0.48955900641797
C            3.75655231992854       -1.43464139262165        0.53081534729659
C            2.56710369353269       -1.37443110803168        1.25635046222493
C            1.78525881878668       -0.22204539072581        1.25969770851372
C            2.14612127461398        0.90105018061937        0.51732116703658
C            3.39582040305087        0.89330977564842       -0.15925917629245
C            4.18965343744386       -0.27725441829590       -0.16780242060084
C           -0.90380997021329        1.03975372878024        0.67519214312750
H           -2.30074569924840        1.07534237842896       -1.67643658359722
H           -3.26328273404825        1.41695230937374       -3.92176768332210
H           -5.53249767714178        0.59845036799557       -4.43150700999277
H           -6.84735518516790       -0.56380366843433       -2.69526961585174
H           -5.87022613685336       -0.90264291009631       -0.43699925261212
H           -1.78009165724982       -1.54630131288324       -1.40850119975145
H           -0.45120264164251       -3.62368039825165       -1.42935763704602
H           -0.34830541834511       -5.04559863125196        0.58187051900952
H           -1.56900047065893       -4.38876329663984        2.62540794072069
H           -2.90256544020381       -2.29352106477838        2.63773975534666
H           -3.73459098143177        2.16378125151937        2.13771584553301
H           -2.24148222724711        4.10135948570654        2.60087064243037
H            0.09258359491295        4.05380636355012        1.85301903485794
H            1.28370105756930        4.16412856738848       -0.09578672196967
H            3.46906310269726        4.15475466242753       -1.19371523046121
H            5.45968715195789        2.92563897264936       -1.95568819289860
H            6.79325046877888        0.85323215408860       -2.05617293291892
H            7.13578090187461       -1.50057951387958       -1.40322372626226
H            6.35339857128093       -3.51960341773789       -0.22737225106592
H            4.22527068560630       -3.48762337726986        1.01884227783133
H            2.24859129860620       -2.23444531433372        1.82711821479544
H            0.89328902445446       -0.20063785767742        1.86760613754656
H           -0.54608449758895        0.19487053928119        0.10456480661517
