59
 energy: -91.221306743495 gnorm: 0.000031199305 xtb: 6.7.1 (edcfbbe)
O           -2.77744131198622        0.00557553631588       -2.33835572066196
P           -2.96664974629929       -0.11921645235218       -0.87961955323918
C           -2.42364224000521       -1.72929865667377       -0.22287239978057
C           -2.45001052033790       -2.81426008744742       -1.08826883410822
C           -2.06135144908141       -4.06552872633456       -0.64347100602758
C           -1.64734201923147       -4.23238712857817        0.66855719003380
C           -1.61709129623551       -3.14926634160346        1.53318769848737
C           -2.00341102625527       -1.89674343711879        1.09063490087526
C           -4.70202272777820        0.07066623995373       -0.36627027105552
C           -5.14564147997718       -0.27628652414840        0.90444999818127
C           -6.47685352896658       -0.10164621277317        1.23637041327847
C           -7.36512106087748        0.41492703452585        0.30496793017300
C           -6.92463841945428        0.75502766089116       -0.96400032951209
C           -5.59317862138766        0.58181940118242       -1.29967520343102
C           -1.99284461305751        1.09859612535860        0.06786701391622
C           -2.52639507525996        1.98896652222315        0.98730505293787
C           -1.68300239054875        2.87225467601886        1.64196883745973
C           -0.32326946531070        2.85985730916124        1.38929003259736
C            0.22440776022722        1.96493833098747        0.47009824264807
C            1.67062829359790        1.97725589755340        0.19146267670735
C            2.26415371844616        3.18482397246450       -0.16712863944574
C            3.60508291481019        3.26348168596078       -0.47890157797374
C            4.41245867337363        2.12549775741078       -0.43869740607814
C            5.79877632428741        2.17103213555694       -0.76847170478661
C            6.56890301050810        1.05973551635380       -0.72075416307455
C            6.02197964947485       -0.19969950295886       -0.33479742244518
C            6.79844740806722       -1.35868432045186       -0.27829685158356
C            6.24083266315027       -2.56615795233190        0.10140621934209
C            4.90149830826710       -2.64687174145296        0.43640523357832
C            4.08750779764133       -1.51339763197818        0.39448779109816
C            2.70886572626995       -1.55245141146022        0.75353370660409
C            1.93402398051838       -0.44429795944580        0.70025314581868
C            2.45623160100329        0.81264774700200        0.26932541191461
C            3.83581496696661        0.88877281949856       -0.05542156892614
C            4.64648473733753       -0.27258676429692        0.00105511676775
C           -0.63045329905954        1.09299268074446       -0.19511553643556
H           -2.76739659713653       -2.65508762933536       -2.10998672145870
H           -2.08020144827196       -4.90835336709433       -1.31889672396547
H           -1.34302291828502       -5.20823275991761        1.01752621528029
H           -1.28693417496199       -3.28007447292944        2.55356521067240
H           -1.96798909487936       -1.04565890027490        1.75686047864862
H           -4.45012036201564       -0.68304549655478        1.62385747501536
H           -6.82410689139096       -0.36980408017396        2.22350827349556
H           -8.40381586608256        0.54918446832251        0.56886846671073
H           -7.61673634378584        1.15388831823697       -1.69113924091686
H           -5.22418140836846        0.83368038389232       -2.28446755062617
H           -3.58840056975670        1.99229511697415        1.18610438551209
H           -2.09065272975779        3.57192654371199        2.35708376709414
H            0.32996266234540        3.54069066511644        1.91549549604160
H            1.64819276914240        4.07129524164842       -0.22328558093791
H            4.03925683931852        4.21076435084667       -0.76535144617737
H            6.21955258440810        3.12309870258855       -1.06028419738535
H            7.61909651115890        1.10323249457225       -0.97338651441459
H            7.84645799385620       -1.30283503725688       -0.53679173776638
H            6.85722346574216       -3.45316069070156        0.13804725235285
H            4.47232913530766       -3.59257444499156        0.73577737916038
H            2.29398233204803       -2.49580169030122        1.07991487500516
H            0.89711529427493       -0.49697189354755        0.99639270363470
H           -0.24842115955795        0.41039043776228       -0.94417876252942
