33
 energy: -62.999523415045 gnorm: 0.000062027662 xtb: 6.7.1 (edcfbbe)
N            5.66548584929859        2.64527407342882        0.00006211307840
C            4.73023797045839        1.98315640974176       -0.00020065242893
C            3.56064200386212        1.18964773092469       -0.00051412873318
C            2.30822177041190        1.80927825776362       -0.00056387389943
C            1.13587484401517        1.06352976669644       -0.00061550423579
N           -0.07194453204752        1.62595318872579       -0.00012596407347
C           -1.16563723539872        0.90873197816918        0.00012228285139
C           -1.07859249177665       -0.52834256947154       -0.00056800789729
N            0.10240575040688       -1.10006791111843       -0.00118889384209
C            1.21966057451632       -0.39194005263119       -0.00104669879989
C            2.49102450307647       -0.99148150254393       -0.00116880568323
C            2.57198544736704       -2.39683607595464       -0.00166333487039
N            2.62663454737148       -3.54257544038334       -0.00230414508125
C            3.66313348464572       -0.20598125963560       -0.00074289571731
C            4.92898773104502       -0.82912384129547       -0.00040250976812
N            5.95978237195820       -1.33060211712757       -0.00014166315817
C           -2.41740484048716       -1.06475341536104        0.00012956182665
C           -2.96537736853059       -2.32582981411547        0.00000468300434
C           -4.36886619188267       -2.43461397698906        0.00125459731031
C           -5.20758028941935       -1.34483141040087        0.00265894613939
C           -4.67408035328966       -0.03381123347485        0.00279755964074
C           -5.36799028150208        1.19888175031275        0.00429165225201
C           -4.67386613975762        2.38607829258196        0.00427034916997
C           -3.26787469506836        2.45405715132851        0.00281952931457
C           -2.56569805782637        1.27274486173325        0.00140927961444
C           -3.28391578449649        0.05434939178949        0.00141483156728
H            2.23817627103930        2.88549743963982       -0.00039441154646
H           -2.34934588012628       -3.21152427214255       -0.00098521293757
H           -4.79816071941295       -3.42583066683436        0.00113500508504
H           -6.27848927990301       -1.48381695579166        0.00367640217678
H           -6.44794856719733        1.20221798817304        0.00551287160536
H           -5.22478482035228        3.31525142832851        0.00547365257899
H           -2.76997841360194        3.41129081121747        0.00288198973293
