33
 energy: -63.043001904733 gnorm: 0.000105592513 xtb: 6.7.1 (edcfbbe)
N            6.48049692096231        2.40303297784867       -0.00050950036902
C            5.52143710919617        1.77764136703467       -0.00036786350227
C            4.32237745199625        1.02336589464970       -0.00012448982001
C            3.10137220114359        1.66439995428586        0.00001166585121
C            1.91029173012844        0.92126239847229        0.00014069016149
N            0.72796321657729        1.58825629258660        0.00018663786020
C           -0.33954487431209        0.84471357153433        0.00018332731667
C           -0.28047595904105       -0.61179016389173        0.00016330424189
N            0.84459972708618       -1.26585432871412        0.00017135434952
C            1.96347777053174       -0.50401494835270        0.00014941747786
C            3.22512774508913       -1.14753074982745        0.00009026288747
C            3.28077647053759       -2.56145347834036        0.00019085418413
N            3.32847808669044       -3.70545950114581        0.00010541544972
C            4.39250914806407       -0.39366638696360       -0.00004992355019
C            5.65586980880178       -1.03187654724689       -0.00019295444998
N            6.68123165375850       -1.54161959618378       -0.00024937366783
C           -1.63910446395632       -1.11770793739456        0.00009146575654
C           -2.21681652305847       -2.36401552359633        0.00001453042299
C           -3.62131785025116       -2.44279243524343       -0.00007584055000
C           -4.43102399814663       -1.33059775952532       -0.00009754941352
C           -3.86858881737166       -0.03372235175103       -0.00001793697038
C           -4.53936243767475        1.21034417539691       -0.00002966573686
C           -3.82659862204450        2.38683478543814        0.00003396889208
C           -2.42041849239085        2.42693214200550        0.00010996576373
C           -1.73782964210468        1.23504133190329        0.00013979059266
C           -2.47246487776416        0.02579290910684        0.00007757144449
H            3.03893786047900        2.74185647728230       -0.00000109256557
H           -1.61605816194493       -3.25998178604871        0.00004922205107
H           -4.07690475064246       -3.42218293894357       -0.00012932177704
H           -5.50549914825374       -1.44237328992106       -0.00019028563475
H           -5.61940522216072        1.23087791123715       -0.00006817051839
H           -4.36333561689555        3.32429636495515        0.00005872618614
H           -1.90019844303050        3.37199016935995        0.00013679764120
