  33
        -63.04299906
 N          5.6452433780        2.6256994581        0.0060933888
 C          4.7009072687        1.9787849150        0.0039423795
 C          3.5187484509        1.1986169240       -0.0009318168
 C          2.2844639639        1.8136354257       -0.0063412337
 C          1.1093724360        1.0453670128       -0.0083690398
 N         -0.0869046908        1.6871221351       -0.0104619785
 C         -1.1383972304        0.9211130801       -0.0088122535
 C         -1.0484876126       -0.5338951668       -0.0080812306
 N          0.0902495398       -1.1639677748       -0.0068407671
 C          1.1926692399       -0.3785034748       -0.0060990502
 C          2.4677793367       -0.9951671741       -0.0011481863
 C          2.5535092571       -2.4079341281        0.0003617537
 N          2.6275139906       -3.5505488727        0.0001993543
 C          3.6189038518       -0.2165433477        0.0019281423
 C          4.8953643206       -0.8284065996        0.0071898386
 N          5.9300910228       -1.3178966909        0.0121734060
 C         -2.3960590221       -1.0684311671       -0.0054164824
 C         -2.9473885676       -2.3268447074       -0.0045815613
 C         -4.3499612082       -2.4353731756        0.0024233712
 C         -5.1829654138       -1.3404876819        0.0078333809
 C         -4.6479749945       -0.0319037692        0.0061784183
 C         -5.3448667853        1.1976926020        0.0115605057
 C         -4.6572622818        2.3889730989        0.0084541346
 C         -3.2523177627        2.4587855134        0.0006836240
 C         -2.5446548564        1.2816940687       -0.0036481312
 C         -3.2534398737        0.0571859280       -0.0009852602
 H          2.1991776668        2.8895220127       -0.0090874916
 H         -2.3279130912       -3.2099611075       -0.0092292318
 H         -4.7847897123       -3.4243575388        0.0041431042
 H         -6.2548718129       -1.4750355412        0.0140440232
 H         -6.4250766274        1.1954195574        0.0178872784
 H         -5.2137858012        3.3148290657        0.0126746150
 H         -2.7521883341        3.4145251128       -0.0006186976
