  44
        -87.56128073
 O         -2.4318185330        0.1761597452       -2.6026362872
 C         -2.6070526585       -0.5071955961       -1.5829273163
 O         -3.8012551793       -1.1351721172       -1.4787720891
 C         -4.0845823144       -1.9396489638       -0.4137971641
 C         -5.3104168964       -2.5773130511       -0.3962556839
 C         -5.6462884235       -3.3972131329        0.6769942299
 C         -4.7577514605       -3.5686731621        1.7325782377
 C         -3.5360091923       -2.9375308382        1.7252529659
 C         -3.1694707023       -2.1017212423        0.6473770479
 C         -1.9245962300       -1.4114501042        0.6078225577
 O         -1.1134216502       -1.5502118977        1.6434759218
 C         -1.6196641993       -0.6694063721       -0.5628177180
 C         -0.2792100319       -0.0429230668       -0.8699668183
 C          0.9124670583       -0.8819579533       -0.5509921199
 C          0.9914712948       -2.2314635638       -0.3693769159
 C          2.3085525501       -2.6969713886       -0.1877615671
 C          3.2164871463       -1.6843866640       -0.2525723815
 Br         5.0749913083       -1.8287003670       -0.0709391527
 S          2.4821066627       -0.1418726317       -0.5358760261
 C         -0.3028008692        1.2976789929       -0.1734109542
 C         -0.7333812330        2.4669995950       -0.8632760904
 O         -1.2615123902        2.4433170258       -2.0830540930
 C         -0.5193142247        3.7228647689       -0.2432144482
 C         -0.8306505181        4.9500576447       -0.8734056029
 C         -0.6297899448        6.1402171158       -0.2156072829
 C         -0.1103107922        6.1549599830        1.0742859946
 C          0.2047416552        4.9600946714        1.7180100896
 C          0.0080513083        3.7587923717        1.0674122304
 O          0.3168458546        2.6134082987        1.7407847153
 C          0.1805373142        1.3925778264        1.1645213688
 O          0.5201554949        0.4246149416        1.8567472648
 H         -5.9879930237       -2.4270257909       -1.2211352091
 H         -6.6000068574       -3.9002165099        0.6815079888
 H         -5.0264962389       -4.2036595779        2.5625100009
 H         -2.8316008645       -3.0595141701        2.5316434981
 H         -0.3657332937       -0.8815934323        1.6404760120
 H         -0.2585207678        0.1413949022       -1.9529278072
 H          0.1362258556       -2.8807285265       -0.3604983270
 H          2.5721094085       -3.7242567888       -0.0167984863
 H         -1.6228046277        1.5429651143       -2.3236177074
 H         -1.2276561041        4.9157860153       -1.8744515293
 H         -0.8734029551        7.0697645658       -0.7065228009
 H          0.0567261076        7.0907017767        1.5831034797
 H          0.6037807618        4.9515646030        2.7194011619
