  44
        -87.56128073
 O         -2.4318185330        0.1761597452       -2.6026362872
 C         -2.6070526585       -0.5071955961       -1.5829273163
 O         -3.8012551793       -1.1351721172       -1.4787720891
 C         -4.0845823144       -1.9396489638       -0.4137971641
 C         -5.3104168964       -2.5773130511       -0.3962556839
 C         -5.6462884235       -3.3972131329        0.6769942299
 C         -4.7577514605       -3.5686731621        1.7325782377
 C         -3.5360091923       -2.9375308382        1.7252529659
 C         -3.1694707023       -2.1017212423        0.6473770479
 C         -1.9245962300       -1.4114501042        0.6078225577
 O         -1.1134216502       -1.5502118977        1.6434759218
 C         -1.6196641993       -0.6694063721       -0.5628177180
 C         -0.2792100319       -0.0429230668       -0.8699668183
 C          0.9124670583       -0.8819579533       -0.5509921199
 C          0.9914712948       -2.2314635638       -0.3693769159
 C          2.3085525501       -2.6969713886       -0.1877615671
 C          3.2164871463       -1.6843866640       -0.2525723815
 Br         5.0749913083       -1.8287003670       -0.0709391527
 S          2.4821066627       -0.1418726317       -0.5358760261
 C         -0.3028008692        1.2976789929       -0.1734109542
 C         -0.7333812330        2.4669995950       -0.8632760904
 O         -1.2615123902        2.4433170258       -2.0830540930
 C         -0.5193142247        3.7228647689       -0.2432144482
 C         -0.8306505181        4.9500576447       -0.8734056029
 C         -0.6297899448        6.1402171158       -0.2156072829
 C         -0.1103107922        6.1549599830        1.0742859946
 C          0.2047416552        4.9600946714        1.7180100896
 C          0.0080513083        3.7587923717        1.0674122304
 O          0.3168458546        2.6134082987        1.7407847153
 C          0.1805373142        1.3925778264        1.1645213688
 O          0.5201554949        0.4246149416        1.8567472648
 H         -5.9879930237       -2.4270257909       -1.2211352091
 H         -6.6000068574       -3.9002165099        0.6815079888
 H         -5.0264962389       -4.2036595779        2.5625100009
 H         -2.8316008645       -3.0595141701        2.5316434981
 H         -0.3657332937       -0.8815934323        1.6404760120
 H         -0.2585207678        0.1413949022       -1.9529278072
 H          0.1362258556       -2.8807285265       -0.3604983270
 H          2.5721094085       -3.7242567888       -0.0167984863
 H         -1.6228046277        1.5429651143       -2.3236177074
 H         -1.2276561041        4.9157860153       -1.8744515293
 H         -0.8734029551        7.0697645658       -0.7065228009
 H          0.0567261076        7.0907017767        1.5831034797
 H          0.6037807618        4.9515646030        2.7194011619
  44
        -87.56062966
 O         -2.1268079392        0.6267718973       -2.5886966465
 C         -2.2606087753       -0.0754772005       -1.5758167353
 O         -3.4229801927       -0.7588336359       -1.4678393035
 C         -3.6521160778       -1.5996545396       -0.4187998169
 C         -4.8464216479       -2.2956218618       -0.3997137649
 C         -5.1255730787       -3.1563569569        0.6567639627
 C         -4.2130712386       -3.3124692068        1.6944137046
 C         -3.0239731365       -2.6216602635        1.6865257967
 C         -2.7168523878       -1.7415853619        0.6268478243
 C         -1.5119719240       -0.9823993093        0.5922479059
 O         -0.6870288596       -1.0918258345        1.6185738957
 C         -1.2578820724       -0.2032773883       -0.5651584048
 C          0.0535809510        0.4832925065       -0.8684432589
 C          1.2831184335       -0.3022715472       -0.5520527984
 C          2.5508879429        0.1765461680       -0.3854664326
 C          3.5139389446       -0.8332196790       -0.2032891900
 C          2.9587537720       -2.0759150969       -0.2537601327
 Br         3.8443526942       -3.7153643806       -0.0606144036
 S          1.2486969317       -2.0346032616       -0.5252729163
 C         -0.0344066545        1.8191313594       -0.1672837642
 C         -0.5058240796        2.9694074290       -0.8666296810
 O         -1.0053607071        2.9202226977       -2.0987966037
 C         -0.3673056650        4.2332767509       -0.2433726286
 C         -0.7308980408        5.4440524314       -0.8782305378
 C         -0.6083057023        6.6415442294       -0.2143859049
 C         -0.1167533173        6.6809242140        1.0858200948
 C          0.2477138405        5.5024699609        1.7346392441
 C          0.1293706060        4.2942406846        1.0785308653
 O          0.4846821361        3.1643117676        1.7562759719
 C          0.4182355858        1.9361847281        1.1779098904
 O          0.7920315106        0.9888760343        1.8813537064
 H         -5.5431931762       -2.1576698139       -1.2107260577
 H         -6.0542014671       -3.7045132774        0.6624686061
 H         -4.4366112773       -3.9834264439        2.5093184757
 H         -2.3007281994       -2.7314333619        2.4777344825
 H          0.0084301070       -0.3665601560        1.6356750925
 H          0.0659802339        0.6699981077       -1.9511517781
 H          2.7867972698        1.2243555384       -0.3796906170
 H          4.5608743912       -0.6541052552       -0.0423376870
 H         -1.3524173474        2.0108804590       -2.3299421997
 H         -1.1060179730        5.3907389509       -1.8869345363
 H         -0.8938918599        7.5577116423       -0.7079567109
 H         -0.0130382722        7.6227060817        1.6002277837
 H          0.6228916301        5.5129158377        2.7451380923
  44
        -87.55995464
 O         -2.2092262726        0.0564848094       -2.7418798556
 C         -2.4491873507       -0.5261025389       -1.6730266819
 O         -3.6968423559       -1.0278642662       -1.5276966595
 C         -4.0751005362       -1.6507179288       -0.3739026899
 C         -5.3869437907       -2.0718084814       -0.2711160520
 C         -5.8213378822       -2.6989217601        0.8928471566
 C         -4.9399427249       -2.9031932285        1.9488983138
 C         -3.6318116420       -2.4904482628        1.8554379143
 C         -3.1670209894       -1.8423776216        0.6892353126
 C         -1.8393471428       -1.3448939016        0.5735614301
 O         -1.0169492064       -1.5499501998        1.5923087964
 C         -1.4782067747       -0.6948864056       -0.6369909002
 C         -0.1196053352       -0.1100343607       -0.9439752177
 C          1.0612168850       -0.9519394405       -0.6018859170
 C          1.1194388135       -2.2975125725       -0.3848460999
 C          2.4300384749       -2.7801692898       -0.2017004812
 C          3.3538116855       -1.7849669170       -0.3013770030
 Br         5.2113050424       -1.9567526736       -0.1324869198
 S          2.6426761255       -0.2384353427       -0.6199928411
 C         -0.1982953573        1.2236065473       -0.2387327396
 C         -0.7187699349        2.3737410640       -0.8985833798
 O         -1.1603186990        2.3623688314       -2.1538395684
 C         -0.7249267527        3.6029511418       -0.1943593226
 C         -1.2268310058        4.8004603591       -0.7546435398
 C         -1.2720487146        5.9527511750       -0.0070904357
 C         -0.8131054297        5.9607223875        1.3060928847
 C         -0.3031974761        4.7980796176        1.8785836352
 C         -0.2542525361        3.6339500393        1.1379857234
 O          0.2417707524        2.5168718353        1.7426506698
 C          0.2580353867        1.3166367890        1.1100665379
 O          0.6979595308        0.3616555074        1.7623468917
 H         -6.0548928094       -1.9018318654       -1.0999987799
 H         -6.8460226459       -3.0258476785        0.9681639584
 H         -5.2842024510       -3.3892661671        2.8485366433
 H         -2.9335769618       -2.6378430119        2.6628338520
 H         -0.2149113987       -0.9553639826        1.5651088450
 H         -0.0815389552        0.0686307634       -2.0266357015
 H          0.2529160695       -2.9306462652       -0.3516601709
 H          2.6784740358       -3.8069012830       -0.0066447082
 H         -1.4435197944        1.4531036927       -2.4488672937
 H         -1.5787014316        4.7710528354       -1.7726199510
 H         -1.6669429651        6.8574112168       -0.4427611597
 H         -0.8461065728        6.8677292773        1.8882363940
 H          0.0571227014        4.7850013747        2.8945131196
  44
        -87.55978828
 O         -2.2031211508        0.0641233006       -2.7492166657
 C         -2.4425938801       -0.5145421096       -1.6781291496
 O         -3.6946460378       -1.0029438042       -1.5245715769
 C         -4.0720156282       -1.6218920959       -0.3684561966
 C         -5.3888670941       -2.0242886776       -0.2548658115
 C         -5.8216335399       -2.6483116128        0.9112150757
 C         -4.9336078214       -2.8691672172        1.9583225999
 C         -3.6206783609       -2.4744891012        1.8544057359
 C         -3.1576437666       -1.8285137295        0.6864645443
 C         -1.8258756603       -1.3441780954        0.5627353585
 O         -0.9974896018       -1.5618855423        1.5739701933
 C         -1.4674791417       -0.6916305429       -0.6473685164
 C         -0.1075861021       -0.1105796818       -0.9565200340
 C          1.0708521070       -0.9554765075       -0.6141825938
 C          1.1248233305       -2.3046671792       -0.4196187225
 C          2.4326015414       -2.7923609135       -0.2299102285
 C          3.3584233751       -1.7966950111       -0.3015445272
 Br         5.2137303035       -1.9737876092       -0.1133804151
 S          2.6528829958       -0.2438265650       -0.6013162872
 C         -0.1900520345        1.2218229368       -0.2498611691
 C         -0.7107624302        2.3718240368       -0.9106270487
 O         -1.1386148133        2.3623820078       -2.1707590468
 C         -0.7342645334        3.5975681105       -0.2011280603
 C         -1.2430120362        4.7926247457       -0.7604306106
 C         -1.3100592581        5.9398123729       -0.0067560195
 C         -0.8666603393        5.9450988239        1.3118196575
 C         -0.3494094048        4.7852720467        1.8832103441
 C         -0.2783340136        3.6262017010        1.1364163372
 O          0.2244012455        2.5114218085        1.7397324281
 C          0.2561523826        1.3137528072        1.1025117439
 O          0.7006939072        0.3605398350        1.7541944845
 H         -6.0618743046       -1.8421690564       -1.0770545024
 H         -6.8504254276       -2.9597206880        0.9953752357
 H         -5.2764658817       -3.3535375388        2.8594397127
 H         -2.9174114828       -2.6340514731        2.6550942870
 H         -0.1970063408       -0.9650706648        1.5493915752
 H         -0.0694084385        0.0680664620       -2.0391032294
 H          0.2568057398       -2.9366306297       -0.4077720406
 H          2.6776685775       -3.8227109808       -0.0502251562
 H         -1.4270599628        1.4547223603       -2.4661017409
 H         -1.5824274049        4.7652171122       -1.7826747654
 H         -1.7089398941        6.8429470347       -0.4421163469
 H         -0.9176128111        6.8479820365        1.8989189862
 H         -0.0008037479        4.7702378819        2.9031756984
