  44
  -87.3545324665000       0.462727621524753      !
 O         -1.3096477526       -1.8297179451       -2.5601680325
 C         -0.7058114816       -2.1782424619       -1.5350365323
 O         -0.4715918386       -3.5033172089       -1.3969766566
 C          0.2285891254       -3.9887020468       -0.3320282695
 C          0.4641597448       -5.3499934022       -0.2820991723
 C          1.1655041607       -5.8890274883        0.7914435043
 C          1.6222392011       -5.0662332076        1.8152356239
 C          1.3896023457       -3.7113804204        1.7766671119
 C          0.6799118899       -3.1394652271        0.6991584759
 C          0.3888990050       -1.7465612411        0.6326187468
 O          0.7714290053       -0.9897834533        1.6459343146
 C         -0.2439392616       -1.2616111350       -0.5402073748
 C         -0.4277008366        0.2001211906       -0.8761619499
 C          0.7349496635        1.0852068275       -0.5698231555
 C          0.7271098416        2.4436140838       -0.4322542134
 C          2.0079479004        2.9979798163       -0.2522115876
 C          2.9793281229        2.0435317686       -0.2749971361
 Br         4.8231975884        2.3060823073       -0.0735094533
 S          2.3462492608        0.4497285180       -0.5173246196
 C         -1.7155925947        0.5982376286       -0.1930294461
 C         -2.9527523264        0.5424924365       -0.9006892572
 O         -3.0715935557        0.0309598814       -2.1231468281
 C         -4.0936112690        1.1261087851       -0.2983312256
 C         -5.3503503402        1.1938642010       -0.9442707270
 C         -6.4348619041        1.7402877860       -0.3000959699
 C         -6.3101291857        2.2423735340        0.9906642025
 C         -5.0834812147        2.1870012843        1.6500773457
 C         -3.9874830582        1.6409819468        1.0137187723
 O         -2.8097231856        1.5945610699        1.7015056979
 C         -1.6775633064        1.0918955264        1.1422563324
 O         -0.6646983670        1.1269952769        1.8527652901
 H          0.0979755006       -5.9721301332       -1.0827971531
 H          1.3553090522       -6.9501331400        0.8212340654
 H          2.1669432740       -5.4921666887        2.6435481806
 H          1.7387600739       -3.0550378640        2.5566978075
 H          0.3341475776       -0.0849516754        1.6404264787
 H         -0.5901945659        0.2537060679       -1.9615166893
 H         -0.1726425864        3.0300045114       -0.4457776016
 H          2.2040072124        4.0448744197       -0.1120915392
 H         -2.3386758071       -0.6161292805       -2.3350125771
 H         -5.4236138517        0.8022466906       -1.9454246766
 H         -7.3893588340        1.7814702736       -0.8018667702
 H         -7.1604522353        2.6787922410        1.4894773849
 H         -4.9700363941        2.5637700372        2.6536464723
  44
  -87.3543459189000       0.379834215494883      !
 O         -0.9936151309       -2.2728838958       -2.5622679494
 C         -0.4219876536       -2.6535023583       -1.5298632227
 O         -0.2507417285       -3.9891836087       -1.3958747391
 C          0.3963582201       -4.5123406504       -0.3145805057
 C          0.5663036407       -5.8828879130       -0.2664934032
 C          1.2094699289       -6.4604806970        0.8242104548
 C          1.6720953454       -5.6651092853        1.8665712922
 C          1.5067577514       -4.3004517957        1.8288634890
 C          0.8594118123       -3.6886761205        0.7327711580
 C          0.6469704476       -2.2824214728        0.6615827742
 O          1.0521206188       -1.5485710049        1.6848880826
 C          0.0667128143       -1.7630356248       -0.5248195684
 C         -0.0505966004       -0.2951625225       -0.8642696141
 C          1.1489418304        0.5358642446       -0.5539137674
 C          2.4398567156        0.1434082516       -0.3541434057
 C          3.3341047496        1.2192040266       -0.1887088057
 C          2.7022750180        2.4215311465       -0.2839673181
 Br         3.4843356770        4.1166176799       -0.1325818338
 S          1.0026704053        2.2649691096       -0.5768114381
 C         -1.3204583036        0.1648587787       -0.1869276480
 C         -2.5612950860        0.1542201460       -0.8860949565
 O         -2.7141025574       -0.3749538129       -2.0960398134
 C         -3.6682799093        0.8057712268       -0.2881281939
 C         -4.9222149122        0.9283148905       -0.9305482999
 C         -5.9725119757        1.5453949556       -0.2936719869
 C         -5.8148722545        2.0648422023        0.9866501936
 C         -4.5900399044        1.9573372071        1.6420662888
 C         -3.5278998346        1.3404347588        1.0124777537
 O         -2.3518462531        1.2449450427        1.6969256609
 C         -1.2509058400        0.6794034481        1.1408866188
 O         -0.2305196829        0.6750386309        1.8410740114
 H          0.1953582643       -6.4830342166       -1.0815675360
 H          1.3482168317       -7.5293845454        0.8525914748
 H          2.1672092188       -6.1205436483        2.7101707404
 H          1.8606747122       -3.6656918415        2.6245765664
 H          0.6862950768       -0.6149708535        1.6591983862
 H         -0.2079595302       -0.2346471116       -1.9499861776
 H          2.7499880877       -0.8841071265       -0.3209882821
 H          4.3874871244        1.1117637256       -0.0074685224
 H         -1.9945042744       -1.0324499121       -2.3172042060
 H         -5.0210147220        0.5229898400       -1.9239420424
 H         -6.9249296456        1.6306285582       -0.7937116066
 H         -6.6374080901        2.5583720410        1.4788618971
 H         -4.4504205847        2.3496568225        2.6363905897
  44
  -87.3529326963000       8.513770609793679E-002 !
 O         -0.8086611968       -2.1083123446       -2.7023808996
 C         -0.3569926077       -2.5141977606       -1.6203970924
 O         -0.3284357473       -3.8550576990       -1.4448756124
 C          0.1114574868       -4.4026292121       -0.2748645693
 C          0.0422540197       -5.7760809959       -0.1419881280
 C          0.4662617897       -6.3774495674        1.0392624357
 C          0.9592679043       -5.6011717542        2.0824144047
 C          1.0348946920       -4.2339248135        1.9590589211
 C          0.6020081635       -3.5967839244        0.7746961575
 C          0.6054117287       -2.1818999122        0.6274548941
 O          1.0786686396       -1.4619311438        1.6343836484
 C          0.1345487539       -1.6420461339       -0.5994171497
 C          0.0686934273       -0.1717177598       -0.9398385140
 C          1.2698899027        0.6442042094       -0.6058194483
 C          2.5477640248        0.2295721948       -0.3687938179
 C          3.4598528297        1.2899126636       -0.2016310261
 C          2.8550003571        2.5025544218       -0.3334398620
 Br         3.6690678249        4.1837746100       -0.1952059519
 S          1.1597839412        2.3748063725       -0.6634572653
 C         -1.2129313387        0.2401287405       -0.2542894177
 C         -2.4671527399        0.1435404791       -0.9226496830
 O         -2.6016637823       -0.3015937838       -2.1694556042
 C         -3.6254780972        0.5864464780       -0.2377821868
 C         -4.9183178271        0.5261406622       -0.8076797655
 C         -6.0187933409        0.9063726261       -0.0775895614
 C         -5.8754522689        1.3678759807        1.2268685263
 C         -4.6125207934        1.4482235879        1.8082791738
 C         -3.4997110848        1.0674641791        1.0852609347
 O         -2.2845808808        1.1515872345        1.6983713757
 C         -1.1504053724        0.7299420772        1.0844881081
 O         -0.1071340474        0.8197328971        1.7436654073
 H         -0.3453218059       -6.3596615832       -0.9613251744
 H          0.4103868014       -7.4496671340        1.1380527045
 H          1.2852701882       -6.0744228043        2.9955883963
 H          1.4121932229       -3.6145327228        2.7560183539
 H          0.8051918545       -0.5026825758        1.5834927378
 H         -0.0760394509       -0.0973152258       -2.0256748994
 H          2.8345334450       -0.8034555999       -0.3101583370
 H          4.5065902837        1.1650680737        0.0050089971
 H         -1.8481467815       -0.8934181089       -2.4450702071
 H         -5.0063237474        0.1638529985       -1.8185982487
 H         -7.0009118253        0.8458201761       -0.5202371906
 H         -6.7407077878        1.6694537780        1.7952217249
 H         -4.4817619685        1.8034069543        2.8176657668
  44
  -87.3527782450000       7.230045688242742E-002 !
 O         -0.8156124423       -2.0979297434       -2.7109987114
 C         -0.3670368185       -2.5028218818       -1.6273605900
 O         -0.3529204053       -3.8430390456       -1.4446875765
 C          0.0840367541       -4.3893046113       -0.2730349229
 C         -0.0048653588       -5.7606894290       -0.1304738342
 C          0.4172203692       -6.3603552967        1.0521844178
 C          0.9289193345       -5.5847942109        2.0868197222
 C          1.0235841412       -4.2195905902        1.9541134807
 C          0.5916497530       -3.5839086680        0.7687388473
 C          0.6092243348       -2.1699019658        0.6145558815
 O          1.0972205808       -1.4498021715        1.6143217718
 C          0.1345592770       -1.6307085634       -0.6112423558
 C          0.0730138406       -0.1603010886       -0.9527359293
 C          1.2765865785        0.6517382915       -0.6184203724
 C          2.5565142465        0.2308102365       -0.4046723934
 C          3.4726801729        1.2864796637       -0.2305448658
 C          2.8682036370        2.5020850075       -0.3332088583
 Br         3.6869016072        4.1794579329       -0.1748263381
 S          1.1686780608        2.3829644380       -0.6438112594
 C         -1.2083217483        0.2475221254       -0.2647508611
 C         -2.4628617408        0.1514989584       -0.9334528519
 O         -2.5950765004       -0.2793342301       -2.1856435272
 C         -3.6236212151        0.5769473968       -0.2420623930
 C         -4.9168942576        0.5101915909       -0.8102104596
 C         -6.0198569201        0.8681625479       -0.0727212527
 C         -5.8787278563        1.3133381144        1.2376884794
 C         -4.6155138977        1.4007299407        1.8172462096
 C         -3.5000657582        1.0424872425        1.0867431751
 O         -2.2843721313        1.1328688612        1.6977975291
 C         -1.1475386938        0.7265966528        1.0781024429
 O         -0.1039277354        0.8205365028        1.7361100446
 H         -0.4062337895       -6.3438852676       -0.9434230957
 H          0.3450282558       -7.4308056383        1.1589348637
 H          1.2541272719       -6.0568396554        3.0009265019
 H          1.4146889606       -3.6005977545        2.7447028165
 H          0.8213591991       -0.4910463036        1.5668534499
 H         -0.0721886543       -0.0849966075       -2.0383711462
 H          2.8415402030       -0.8037934163       -0.3682283246
 H          4.5218010667        1.1564099023       -0.0397752511
 H         -1.8452308107       -0.8755445255       -2.4622997621
 H         -5.0029669966        0.1609023081       -1.8258509292
 H         -7.0021990437        0.8039607872       -0.5145115649
 H         -6.7461158705        1.5966439168        1.8120191568
 H         -4.4864693175        1.7436061518        2.8310828109
