  53
        -91.53372506
 O          4.0511921016        1.4893689032       -1.6505761562
 C          3.2493225958        0.8587500063       -0.9921165635
 C          1.7917233998        0.9812182580       -1.1709442519
 C          1.2963373925        1.8169223248       -2.1505427876
 C         -0.0808972071        1.9326007305       -2.3468236155
 C         -0.9575886337        1.2413483567       -1.5503545878
 C         -0.4903194132        0.3974589184       -0.5226168442
 C         -1.3594152212       -0.3465191973        0.3253004959
 N         -2.7504048401       -0.2028592292        0.2036322074
 C         -3.5568628866       -1.3004215102       -0.1226079279
 C         -3.0249954910       -2.5396284350       -0.4570908915
 C         -3.8519997569       -3.5993879520       -0.7948346082
 C         -5.2229758045       -3.4362943530       -0.8149443773
 C         -5.7678564888       -2.1968416983       -0.5183823420
 C         -4.9465790585       -1.1346443296       -0.1852839438
 O         -5.5572306448        0.0702931400        0.0512134365
 C         -4.7623282594        1.1182904223        0.4378069159
 C         -5.3981740493        2.3066728833        0.7506061803
 C         -4.6636019646        3.4007253797        1.1800916290
 C         -3.2941407037        3.2896886912        1.3191057041
 C         -2.6524887879        2.1013506735        1.0082184608
 C         -3.3697944136        1.0091490435        0.5356138503
 C         -0.8356765159       -1.2192757484        1.2599376707
 C          0.5388980514       -1.3620580159        1.4131452845
 C          1.4126140249       -0.6333367213        0.6287804815
 C          0.9096310804        0.2486247331       -0.3495023060
 C          2.8609371069       -0.7949488147        0.8157153786
 O          3.3446391846       -1.5557386178        1.6297209510
 N          3.6710986362       -0.0255361037       -0.0102639236
 C          5.0878910907       -0.1694079499        0.1656664053
 C          5.8444607651       -0.7686077991       -0.8283975131
 C          7.2099347169       -0.9066795737       -0.6540409111
 C          7.8119538144       -0.4564742836        0.5085549267
 C          7.0489776385        0.1385224130        1.4988600400
 C          5.6840850547        0.2881249570        1.3295594146
 H          1.9944909664        2.3673912131       -2.7627699306
 H         -0.4542256475        2.5719543526       -3.1319850027
 H         -2.0208074524        1.3371203806       -1.7101322232
 H         -1.9553111723       -2.6772163659       -0.4627680885
 H         -3.4109917546       -4.5515376116       -1.0454218228
 H         -5.8705213297       -4.2593386272       -1.0717163394
 H         -6.8321996481       -2.0278059295       -0.5470837461
 H         -6.4709605921        2.3510100929        0.6535238648
 H         -5.1663485874        4.3250134885        1.4157038653
 H         -2.7112560251        4.1243628265        1.6760270522
 H         -1.5843043984        2.0237858976        1.1361911926
 H         -1.5076820495       -1.7814728497        1.8913135427
 H          0.9447436686       -2.0300892311        2.1573014937
 H          5.3648341837       -1.1173868391       -1.7303719359
 H          7.8026984987       -1.3713480649       -1.4274598209
 H          8.8771537662       -0.5700510796        0.6433202826
 H          7.5161873393        0.4902741833        2.4063353824
 H          5.0799040028        0.7500855608        2.0956223717
