  73
       -105.68664056
 C          1.3109644034       -4.5575550636        0.6370554878
 C         -0.1519428737       -4.6919583358        0.2332795069
 C         -0.8013053073       -3.3313080833       -0.0119358965
 C         -2.2516370606       -3.4739429768       -0.4708634626
 C         -2.9451973083       -2.1321635434       -0.7349656957
 C         -4.1565813502       -2.2922999922       -1.6626238142
 C         -3.7654685348       -2.4946118501       -3.1216020385
 C         -3.3784747955       -1.4979204666        0.5997583984
 N         -3.7865676204       -0.1272283468        0.4550380464
 C         -5.0714100277        0.3529051342        0.4157675144
 C         -6.2737210674       -0.3211617697        0.5506677180
 C         -7.4466333848        0.4262774014        0.4788481638
 C         -8.6884122636       -0.2332978396        0.6081272387
 N         -9.6965956015       -0.7717637728        0.7070487017
 C         -7.4257431287        1.8162947226        0.2788021065
 C         -6.2287441807        2.4835579119        0.1461934091
 C         -5.0432174587        1.7595299900        0.2129014089
 C         -3.6635487498        2.1251076364        0.1176163395
 C         -3.0009679603        3.3339546984       -0.0767068678
 C         -1.6263743268        3.3381487403       -0.1218184450
 C         -0.8935647686        2.1467605944        0.0287810814
 C          0.5132354070        2.1725326237       -0.0284208401
 C          1.7216071455        2.1551023693       -0.0813246982
 C          3.1252777177        2.1353873493       -0.1563975158
 C          3.8203785959        3.3124854287       -0.4482710002
 C          5.1935201541        3.3173783298       -0.5406487639
 C          5.9315627239        2.1452805650       -0.3458957149
 C          7.3518871873        2.1192098101       -0.4420389834
 C          8.0487536255        0.9742417605       -0.2508046557
 C          7.3876521903       -0.2506850441        0.0571168386
 C          8.0850302172       -1.4429722673        0.2596443516
 C          7.4116918344       -2.6135240126        0.5578611726
 C          6.0330396271       -2.6258885841        0.6622658423
 C          5.2942376866       -1.4574769777        0.4673864171
 C          3.8731085912       -1.4317738648        0.5667034599
 C          3.1744202810       -0.2896125057        0.3662634669
 C          3.8334367903        0.9334059337        0.0545668061
 C          5.2448923290        0.9427742194       -0.0434395805
 C          5.9746032087       -0.2538782430        0.1600732100
 C         -1.5398420216        0.9278180701        0.2284323833
 C         -2.9231299855        0.9261034164        0.2686109317
 H          1.7496061370       -5.5357538633        0.8207252801
 H          1.8769829208       -4.0700730123       -0.1544385574
 H          1.4017921984       -3.9648448348        1.5455248480
 H         -0.7000243919       -5.2157372076        1.0198658188
 H         -0.2219799722       -5.2938797729       -0.6755047856
 H         -0.7498229170       -2.7475706076        0.9100920355
 H         -0.2330761595       -2.7957000814       -0.7766743849
 H         -2.8192956727       -4.0294190028        0.2800520259
 H         -2.2595864865       -4.0655791151       -1.3871522154
 H         -2.2334852399       -1.4547118895       -1.2192424783
 H         -4.7608410146       -3.1371494213       -1.3232539244
 H         -4.7746781606       -1.3940917071       -1.5992227616
 H         -4.6560873770       -2.5806386657       -3.7392332496
 H         -3.1819523337       -1.6484298299       -3.4784604688
 H         -3.1744737797       -3.3973498327       -3.2542024789
 H         -4.2093604659       -2.0671553385        1.0221908337
 H         -2.5485030485       -1.5330903305        1.3121006253
 H         -6.3254018095       -1.3888915890        0.7022124277
 H         -8.3627778252        2.3503614204        0.2312090505
 H         -6.2081947937        3.5517038018       -0.0070452276
 H         -3.5598155367        4.2506155889       -0.1903187335
 H         -1.0866795038        4.2609818909       -0.2735402623
 H          3.2596621959        4.2232281933       -0.6030142182
 H          5.7161771115        4.2356324370       -0.7681829092
 H          7.8624172190        3.0433309817       -0.6744850858
 H          9.1268960652        0.9650830170       -0.3277811886
 H          9.1628398207       -1.4425307939        0.1808433190
 H          7.9682909164       -3.5268805386        0.7111890162
 H          5.5137184621       -3.5444657593        0.8960314526
 H          3.3655031704       -2.3541047198        0.8091447139
 H          2.0965157257       -0.2773186405        0.4418367136
 H         -0.9614612448        0.0239237939        0.3436393229
