  59
        -89.54150170
 C          5.8417566750        1.4851050890       -0.0269249709
 C          5.2091628762        0.9522742622       -1.1385098491
 C          3.8412069401        0.7516220668       -1.1323545224
 C          3.0991790967        1.0852816131       -0.0025015473
 N          1.6958961831        0.8757717026        0.0097982624
 C          0.8573984134        1.9715689492       -0.0307818241
 C          1.3816698846        3.2718068466       -0.1071563740
 C          0.5484500751        4.3662382218       -0.1448420534
 C         -0.8305057836        4.1982521535       -0.1210773337
 C         -1.3566846698        2.9193336686       -0.0779084425
 C         -0.5383033010        1.8022342910       -0.0386044715
 C         -1.1742355124        0.4375848544       -0.0175276781
 C         -2.0924552200        0.3041429968        1.1836361372
 C         -1.7575530246        0.3396981896        2.5183276739
 C         -2.7684656420        0.1940623583        3.4598025701
 C         -4.0860417450        0.0189193576        3.0637081852
 C         -4.4271903772       -0.0183596796        1.7212507802
 C         -3.4228271938        0.1248814993        0.7773667673
 C         -3.4657209772        0.1217748620       -0.6754583934
 C         -4.5249930857       -0.0217522049       -1.5572793671
 C         -4.2644596732        0.0108708747       -2.9177483770
 C         -2.9723365142        0.1818937771       -3.3920790250
 C         -1.9068451470        0.3289273831       -2.5129565064
 C         -2.1611798368        0.2976602114       -1.1604520467
 C         -0.1553411485       -0.6748639477       -0.0308226536
 C         -0.6066657281       -1.9877914942       -0.0518100872
 C          0.2838765063       -3.0946091830       -0.0307380325
 C         -0.1554991814       -4.4093534526       -0.0624767425
 C          0.7654926757       -5.4833644399       -0.0201997183
 C          2.1137525026       -5.2376205302        0.0617687400
 C          2.5866560411       -3.9230346168        0.0987377934
 C          1.6875242171       -2.8302579488        0.0492392387
 C          2.1322779900       -1.5161964492        0.0837971418
 C          1.2058802358       -0.4087474328        0.0110406953
 C          3.7338467096        1.6186901448        1.1144569601
 C          5.1016069264        1.8171179206        1.0984477373
 H          6.9096497476        1.6400994534       -0.0352561733
 H          5.7825788984        0.6927998432       -2.0156102517
 H          3.3377755571        0.3366557908       -1.9928098203
 H          2.4500550518        3.4155532288       -0.1440715596
 H          0.9736165071        5.3570241057       -0.1986608682
 H         -1.4857676673        5.0546808701       -0.1477823549
 H         -2.4271705320        2.7776424058       -0.0774276844
 H         -0.7309755218        0.4739017793        2.8279309357
 H         -2.5257795194        0.2167052229        4.5120078209
 H         -4.8560048266       -0.0920685407        3.8133238562
 H         -5.4544798154       -0.1576980121        1.4183699514
 H         -5.5327555227       -0.1570376566       -1.1931705361
 H         -5.0780470575       -0.1005455818       -3.6197716163
 H         -2.7928552072        0.2004256163       -4.4569805471
 H         -0.9005511200        0.4624132479       -2.8835566393
 H         -1.6677125062       -2.1799637207       -0.0839289753
 H         -1.2137016269       -4.6174318705       -0.1144638983
 H          0.3925858689       -6.4963601558       -0.0493690548
 H          2.8178960315       -6.0559511256        0.0983833281
 H          3.6465111336       -3.7263545389        0.1616519428
 H          3.1860926974       -1.3194927179        0.1911491938
 H          3.1491516199        1.8677632952        1.9878558078
 H          5.5928450088        2.2249302943        1.9688582480
