59
 energy: -89.671864513839 gnorm: 0.000025607728 xtb: 6.7.1 (edcfbbe)
C            5.88213335127336        1.16611700720118       -0.00018896337450
C            5.19281096011528        1.10161484783038       -1.20019005015362
C            3.81467093091039        0.97277034403588       -1.20374526637406
C            3.12444478338655        0.90913633629721       -0.00006873702919
N            1.70401912014776        0.77539769621837       -0.00000968281466
C            0.92351614164128        1.91958607399875       -0.00019177394774
C            1.52560156118723        3.18165922725889       -0.00036279826660
C            0.76122366740665        4.33035079050925       -0.00054457961784
C           -0.62129020403895        4.24870211206953       -0.00056036087165
C           -1.22347939182179        3.00410552989467       -0.00039509492873
C           -0.47173146615874        1.83843705620763       -0.00020989222114
C           -1.19009191740203        0.51061687507611       -0.00003797694978
C           -2.14928250064153        0.42692897746142        1.17290835309935
C           -1.85427405383717        0.44323698579882        2.51830843452536
C           -2.89980566511480        0.35439757863068        3.42836930495947
C           -4.21264515764185        0.25359093178170        2.99292074210934
C           -4.51403008036997        0.23575476250961        1.64001236762270
C           -3.47483782815727        0.32217695225025        0.72787384393416
C           -3.47482731743784        0.32198415497654       -0.72792294536895
C           -4.51401069225177        0.23532226454494       -1.64004994602233
C           -4.21261125580648        0.25279849032954       -2.99295966688095
C           -2.89976647379539        0.35348338478941       -3.42842111362794
C           -1.85424512065292        0.44256295905745       -2.51837221128490
C           -2.14926925974657        0.42661945500602       -1.17297117821007
C           -0.24885276231433       -0.66996564755348        0.00011354947639
C           -0.77552189461323       -1.93348140530905        0.00022532058835
C            0.03577809525450       -3.08439904967039        0.00035541791404
C           -0.49814567812830       -4.38794605551196        0.00043263183199
C            0.32692584686193       -5.47898935293385        0.00055045886979
C            1.72113159676927       -5.31073441874996        0.00060327546244
C            2.26848723324333       -4.05818181909655        0.00053398461936
C            1.44405243565738       -2.91205105270595        0.00040221359000
C            1.97236406704623       -1.61096897266781        0.00030027079874
C            1.15763388372772       -0.49580454586950        0.00013457203074
C            3.81473426641505        0.97321427777028        1.20354699091587
C            5.19287484918600        1.10205568488583        1.19987166415491
H            6.95731780217075        1.26633619528953       -0.00023598080128
H            5.72855142562965        1.15099361941845       -2.13654970723242
H            3.26728733432781        0.92093081807462       -2.13354239808815
H            2.60226430642242        3.25727681533064       -0.00035818800609
H            1.25023732381581        5.29354438930371       -0.00067519102528
H           -1.22451122562904        5.14386933041923       -0.00070241339151
H           -2.30161032433754        2.92802831431902       -0.00040851550729
H           -0.83189793875776        0.52213014365346        2.85944007564883
H           -2.68760275065920        0.36452394624894        4.48768477364829
H           -5.01075085224713        0.18678560640665        3.71843312138757
H           -5.53810149141392        0.15579092754618        1.30595545861741
H           -5.53808524092406        0.15544218000295       -1.30598286465116
H           -5.01070942433448        0.18580639349133       -3.71846313333127
H           -2.68755244010691        0.36333714654665       -4.48773668274112
H           -0.83186410786328        0.52135661751354       -2.85951217813410
H           -1.84957626246110       -2.05955628914784        0.00020425428314
H           -1.57265925765324       -4.50845104911602        0.00039324895904
H           -0.08694761371296       -6.47718555572386        0.00060459014054
H            2.35884916232388       -6.18339945356007        0.00069930986264
H            3.34157168149462       -3.92567430270058        0.00057189903702
H            3.04604485960240       -1.49549085092540        0.00034177760171
H            3.26739821245005        0.92172043543968        2.13339151412629
H            5.72866375154521        1.15178318584055        2.13618507104054
