59
 energy: -89.576670584440 gnorm: 0.000054558932 xtb: 6.7.1 (edcfbbe)
C            5.87327385521136        1.35062750421682        0.00843078822146
C            5.17966573169901        1.27445972908968       -1.18844963217251
C            3.80576342670371        1.10619455012247       -1.18681369920137
C            3.12684717542472        1.01361586817151        0.02127261931977
N            1.71080484526025        0.83777313456953        0.02704067471781
C            0.90474998273854        1.95312145947227        0.05400227355517
C            1.47063368398278        3.23910209832913        0.08254431942736
C            0.67059719105709        4.35773862663406        0.11155561480945
C           -0.71370824162904        4.22874030281461        0.11200695716720
C           -1.27974840970996        2.96527571666264        0.08176546103188
C           -0.49680966172308        1.82304536743952        0.05256640202589
C           -1.16862575191110        0.47480246722346        0.01219551667943
C           -2.14636421901799        0.32899020676418        1.16440196737089
C           -1.87721104039817        0.32337639636073        2.51491332901937
C           -2.93471838382033        0.16873232576724        3.40272759841990
C           -4.23429014027495        0.02508478617665        2.93920938699253
C           -4.51002961559263        0.02905839318075        1.58120405573091
C           -3.45873132932840        0.18146537301368        0.69041941707243
C           -3.43232226625445        0.21682073285710       -0.76275500602935
C           -4.45029198523234        0.10910628527258       -1.69768275828405
C           -4.12535915003920        0.17225144722694       -3.04330355865275
C           -2.81018714691661        0.33935575428421       -3.45158635927695
C           -1.78579183063977        0.44862640811096       -2.51926977444739
C           -2.10385833037945        0.38602088767976       -1.18095149149668
C           -0.17730073717576       -0.66430737091041        0.00180762108318
C           -0.65714409253404       -1.96888322663826       -0.01613887600755
C            0.20809243067245       -3.09530002132200       -0.02757305613941
C           -0.26194723897385       -4.40111429866072       -0.04243350972674
C            0.63556856308467       -5.49609917934902       -0.05332873343367
C            1.99161226383139       -5.28146302731523       -0.04916704938298
C            2.49595469757621       -3.97718283464435       -0.03397633592801
C            1.62071142565569       -2.86382980269988       -0.02262106566823
C            2.09495208515883       -1.55952744523628       -0.00650407657555
C            1.19080773394422       -0.43306164022143        0.00669224655243
C            3.81887717756533        1.09108096863058        1.22302096977730
C            5.19270675883942        1.25931264274787        1.21181473954865
H            6.94500768918740        1.48022174008188        0.00341509009945
H            5.70783613721596        1.34363782437915       -2.12744048506689
H            3.25530224571537        1.04197019914211       -2.11367967857335
H            2.54407800876252        3.34697543944701        0.08213761221440
H            1.12380019090217        5.33740206398007        0.13364572661213
H           -1.34412092092595        5.10407331629215        0.13466272678993
H           -2.35484877473883        2.85812386051554        0.07990761517814
H           -0.86524178121350        0.43173322484381        2.87845959998624
H           -2.74237970265091        0.15897479299479        4.46581670442741
H           -5.04194359749929       -0.09328864727878        3.64754753730326
H           -5.52354918010022       -0.08562765886074        1.22558950740507
H           -5.47587431477209       -0.02269305851063       -1.38515216614980
H           -4.90656109012138        0.08919709197478       -3.78550709872942
H           -2.57958579607922        0.38312215061256       -4.50620296276236
H           -0.76154773685026        0.57587162407751       -2.83982386261262
H           -1.72350235207004       -2.13910292933721       -0.02087860220947
H           -1.32662839129563       -4.58546674002989       -0.04570241999889
H            0.23782951827218       -6.50077765000962       -0.06488275868779
H            2.67832946465628       -6.11602034975167       -0.05747812882173
H            3.56229007884169       -3.80542275630994       -0.03054116811011
H            3.15828558988649       -1.38214923216716       -0.00103819443227
H            3.27842151631922        1.01509742166405        2.15489039175507
H            5.73116816342871        1.31637709964521        2.14576419637324
