59
 energy: -89.576699039774 gnorm: 0.000060938190 xtb: 6.7.1 (edcfbbe)
C            5.84515704260404        1.47624085172064       -0.06415357549861
C            5.19209454422579        1.04542122958194       -1.20769137586661
C            3.82240899959720        0.84927483854624       -1.19508536587141
C            3.10407285064456        1.08633180301959       -0.02856931766353
N            1.69552213532793        0.88047564318061       -0.01011344763008
C            0.86125599096886        1.97764375791965       -0.03676372620428
C            1.39208366930933        3.27703791533580       -0.09827408158573
C            0.56396514278758        4.37555513648775       -0.11787223013258
C           -0.81613957227905        4.21297952630492       -0.08600669586702
C           -1.34872866191343        2.93578479887794       -0.05031350156081
C           -0.53628186655623        1.81366189443588       -0.03037323958375
C           -1.17669126458359        0.45045954094183       -0.01198869427437
C           -2.10501458986258        0.31410408214109        1.18208780216443
C           -1.78324787323639        0.35971784261422        2.52022303960719
C           -2.80038362177151        0.20328705946486        3.45360398491973
C           -4.11173191242129        0.00608555456036        3.04646001627719
C           -4.44009149436526       -0.04060883281000        1.70094853418417
C           -3.42942963779967        0.11456479483379        0.76484124100770
C           -3.46004646548272        0.10752155525315       -0.68887450546608
C           -4.50968369472185       -0.05683232782401       -1.57936574782765
C           -4.23930514850495       -0.02208791192217       -2.93807459519948
C           -2.94684162157327        0.17276357632179       -3.40254533233216
C           -1.89075268048097        0.33805412957648       -2.51497380314007
C           -2.15434655802524        0.30347794800739       -1.16377839592962
C           -0.15935127252469       -0.66513571669643       -0.01783034735944
C           -0.61144702564274       -1.97943020492802       -0.02103997746032
C            0.27668876420263       -3.08765664600893        0.00347333401080
C           -0.16503735065788       -4.40319616974526       -0.00693297449896
C            0.75505818049287       -5.47817941919595        0.03647132674773
C            2.10493527297226       -5.23372886230940        0.09478056213726
C            2.58055405200808       -3.91885895987111        0.10739697865125
C            1.68247788724229       -2.82496422376798        0.05846391347468
C            2.12859060894438       -1.51052878479727        0.06688109483455
C            1.20310631465232       -0.40247987936687        0.00395017413160
C            3.75685993499486        1.51920083113831        1.11971256376023
C            5.12666659233750        1.71221875664039        1.09755909587640
H            6.91400008194188        1.62678619738615       -0.07751478122429
H            5.74942774175703        0.86018074321509       -2.11360142347459
H            3.30298817944027        0.50977140087647       -2.07907632643284
H            2.46134036022484        3.41391012332595       -0.13472441766178
H            0.99262966175031        5.36547673249881       -0.16162152932826
H           -1.46874227624533        5.07209911188645       -0.09831527883016
H           -2.42053520178000        2.80018441793725       -0.03975168557179
H           -0.76150996772791        0.50888762339027        2.83934882262262
H           -2.56700437383324        0.23341034647776        4.50808388305716
H           -4.88729584161007       -0.11351386550926        3.78956366571460
H           -5.46272120317794       -0.19616987739730        1.38971605263745
H           -5.51791470303749       -0.20984355966369       -1.22318005078623
H           -5.04590150909626       -0.14890087415474       -3.64614665323633
H           -2.75882015979487        0.19444450842432       -4.46624110271578
H           -0.88422661690743        0.48689464513746       -2.87932173337699
H           -1.67385850353589       -2.17176412910268       -0.04029936153915
H           -1.22487619075351       -4.61051752892548       -0.04334539142221
H            0.37964734953820       -6.49139712111552        0.02573503501520
H            2.80866822359190       -6.05327409376452        0.13104318264764
H            3.64201934693001       -3.72393082688973        0.15150012656864
H            3.18565612097187       -1.31305676916928        0.13798662087810
H            3.18771001722714        1.69618914296957        2.02045559287397
H            5.63365943080803        2.04339595353553        1.99130389798937
