  59
        -89.63732189
 C          5.8804763293        1.3725378197       -0.0204423819
 C          5.1765191608        1.3402930433       -1.2127868638
 C          3.8043979487        1.1618545755       -1.2042438015
 C          3.1346573444        1.0161436029        0.0034736434
 N          1.7227552400        0.8309593347        0.0141871203
 C          0.9024465879        1.9453797141        0.0525407667
 C          1.4587904986        3.2271815576        0.0900532260
 C          0.6522559655        4.3459144553        0.1282552443
 C         -0.7259505864        4.2136218096        0.1310188761
 C         -1.2828140265        2.9489211243        0.0955349970
 C         -0.4883189961        1.8133044047        0.0570887524
 C         -1.1569641675        0.4615755678        0.0132970950
 C         -2.1381947200        0.3135486405        1.1595815281
 C         -1.8744503523        0.3136797923        2.5110304294
 C         -2.9353831764        0.1596495678        3.3935995804
 C         -4.2316862562        0.0089567831        2.9252073701
 C         -4.5014796754        0.0084224671        1.5657831591
 C         -3.4470968424        0.1617493844        0.6810919313
 C         -3.4141091178        0.2011765565       -0.7731464079
 C         -4.4281822028        0.1034480199       -1.7112127266
 C         -4.0979413330        0.1797517274       -3.0550195765
 C         -2.7815877730        0.3498003834       -3.4558518114
 C         -1.7608420951        0.4484152477       -2.5195712474
 C         -2.0847736899        0.3732574725       -1.1834183808
 C         -0.1747407807       -0.6846696827        0.0078359144
 C         -0.6559739419       -1.9658027870        0.0021562394
 C          0.1974758734       -3.0853545766       -0.0054494357
 C         -0.2880451814       -4.4071767228       -0.0042779600
 C          0.5762291634       -5.4670226905       -0.0102729313
 C          1.9628307445       -5.2480903018       -0.0194435792
 C          2.4637825429       -3.9765704206       -0.0217567082
 C          1.5982042912       -2.8619768232       -0.0135791909
 C          2.0794565583       -1.5429378734       -0.0105913472
 C          1.2238710533       -0.4595649384        0.0042643309
 C          3.8400942936        1.0484675064        1.1994173075
 C          5.2121041487        1.2264991189        1.1839374704
 H          6.9510230568        1.5113440477       -0.0296678607
 H          5.6965412604        1.4535283166       -2.1522600733
 H          3.2443816091        1.1345756769       -2.1273013863
 H          2.5318354347        3.3423224117        0.0890347879
 H          1.1051807548        5.3257798163        0.1565735326
 H         -1.3603821251        5.0859471730        0.1603132369
 H         -2.3566296527        2.8324173844        0.0972282778
 H         -0.8645437805        0.4309057833        2.8765970494
 H         -2.7489985309        0.1568558116        4.4574376063
 H         -5.0416764664       -0.1095666734        3.6300883890
 H         -5.5129999120       -0.1094510469        1.2060123395
 H         -5.4551623299       -0.0282751286       -1.4039535795
 H         -4.8760134470        0.1066504340       -3.8008551053
 H         -2.5478755559        0.4070427911       -4.5088539296
 H         -0.7355195198        0.5819989808       -2.8329173349
 H         -1.7242943798       -2.1301984969        0.0049299262
 H         -1.3571198338       -4.5667456179        0.0031639289
 H          0.1995158294       -6.4793592897       -0.0081119052
 H          2.6318695263       -6.0964552320       -0.0241244731
 H          3.5310177320       -3.8046382045       -0.0285192710
 H          3.1481286526       -1.3888472884       -0.0184030582
 H          3.3076350685        0.9327458303        2.1318908374
 H          5.7600212490        1.2513499332        2.1139731487
