60
 energy: -98.166753435780 gnorm: 0.000093998592 xtb: 6.7.1 (edcfbbe)
C           -6.49366740147471       -4.13239718356660       -0.56727884310279
C           -5.50151814249557       -3.59869629661643       -1.37423352594048
C           -5.07366455907202       -2.29760273737488       -1.18909502208129
C           -5.63350364412577       -1.51382836259384       -0.18120749514949
N           -5.21238579680243       -0.18633215716482        0.00794876343244
C           -6.17773950157471        0.79245982203157        0.29986764208874
C           -7.41086819463682        0.77621076491742       -0.34988407198323
C           -8.36639748215003        1.72869243274933       -0.04994129572772
C           -8.10581245692934        2.71068261615428        0.89228959620744
C           -6.88069945301862        2.73089801219372        1.53966832833365
C           -5.92185331737572        1.77794525914258        1.25232083649343
C           -3.87155055935585        0.14904328348477       -0.08156010787365
C           -2.87359394836920       -0.76796893851063        0.27331507885780
C           -1.54626467748040       -0.42533552576513        0.18908874894244
C           -1.14660469280934        0.84495271837322       -0.25099652336500
C            0.26708925176833        1.15750673728017       -0.31425681914504
C            0.78329259178631        2.41419098118567       -0.62458477094120
N            2.08461448658393        2.64908787339589       -0.66506573526079
C            2.95906157188038        1.69852788929960       -0.41156216047575
N            4.25618099088478        1.90826564191992       -0.44847466487005
C            5.08489762109210        0.90826275392568       -0.18046222172047
C            4.58654016075475       -0.38332383683684        0.14682424557423
N            3.28597047941605       -0.62628038330317        0.19245395837085
C            2.43319033421819        0.34855303917731       -0.07181365303692
N            1.14248665681476        0.16796982214569       -0.04536276802281
C            5.71253429029135       -1.26475657384092        0.38230873325534
C            5.87684665653154       -2.58679287382019        0.72042566270885
C            7.18886279374651       -3.08176803574057        0.85145378283131
C            8.30561468950455       -2.30331362904489        0.65772410341752
C            8.17242139427584       -0.93783569335725        0.31044718047216
C            9.19622748968872        0.01021895151671        0.07235082798511
C            8.87707510159737        1.30550424156378       -0.26013563256720
C            7.55005519134786        1.76176462764944       -0.38225201117882
C            6.53189798758975        0.86609270578477       -0.15811602583057
C            6.86653070349719       -0.46713341778615        0.18560729462785
C           -2.14711770173037        1.75517384805863       -0.61278280650252
C           -3.47719477526866        1.41613889281153       -0.53029731009457
C           -6.63055080521732       -2.05451733066931        0.62902937803899
C           -7.05655542870766       -3.35441185168637        0.43167510562713
H           -6.82668268865846       -5.14830642671880       -0.71703365098698
H           -5.06260630279947       -4.19601373777758       -2.15992513343312
H           -4.30775153820238       -1.87876461356274       -1.82546642609130
H           -7.61195207987108        0.01452458296053       -1.08885907818345
H           -9.31757212522222        1.70764163712363       -0.56112987609097
H           -8.85344547848430        3.45469488644919        1.12229585971404
H           -6.67225217307382        3.48828496644312        2.28108041078718
H           -4.97186998539434        1.78672584586478        1.76657020214332
H           -3.15434548310725       -1.74778169541120        0.62959353599432
H           -0.78122868616407       -1.13053752973944        0.47548112700054
H            0.15473034298724        3.26322269890948       -0.84053255083909
H            5.03031817947956       -3.23657946262114        0.88193934475252
H            7.31329752333004       -4.12163561138068        1.11648537492987
H            9.29116821860031       -2.73026301832538        0.76951685447700
H           10.23004746352484       -0.29097865132490        0.15323550747423
H            9.67360684905616        2.01336448210880       -0.43775649015333
H            7.34892507039203        2.78874925850319       -0.64657833481738
H           -1.88583706835898        2.73505743100820       -0.98034448030995
H           -4.23067184638100        2.13062993063783       -0.82638119800611
H           -7.06479764900356       -1.45009942218181        1.41188463502959
H           -7.82791553451011       -3.76394358677733        1.06715504386993
