60
 energy: -98.192297031116 gnorm: 0.000074051633 xtb: 6.7.1 (edcfbbe)
C           -6.50226664668335       -4.15313420841205       -0.30706539330761
C           -5.47663648760082       -3.69444096596676       -1.11824069539860
C           -5.03938711101660       -2.38674343602357       -1.02101884556090
C           -5.62378868109720       -1.52202730927757       -0.09731827787407
N           -5.19597786669554       -0.18508011074299        0.00203955490355
C           -6.17281882349794        0.81664110625346        0.15175385822108
C           -7.35597304985265        0.75246797923856       -0.58162588132705
C           -8.32547433818847        1.72445550901362       -0.42078280523083
C           -8.12759474470145        2.77136147598672        0.46506265091378
C           -6.95195773810042        2.83851212961495        1.19567301512896
C           -5.97955808826090        1.86750348232042        1.04680146643129
C           -3.85390224574873        0.13595298017693       -0.04827765249146
C           -2.87750501739793       -0.77048812067782        0.39046649633918
C           -1.54576147990735       -0.44157185322958        0.34068652019860
C           -1.11996189609683        0.80417832938995       -0.14088518051975
C            0.30129496746159        1.10562106409894       -0.16546717044828
C            0.80792100240412        2.42266763215990       -0.33959981083954
N            2.08084909819999        2.70159460088506       -0.37753143252672
C            2.94427816221477        1.67765678682240       -0.23487132325001
N            4.26143842592208        1.96458337242532       -0.29152210660414
C            5.05471786554105        0.93951610211307       -0.12451938512093
C            4.56168156538495       -0.40637844973437        0.10657386180420
N            3.29163480720345       -0.69955931908035        0.15969282840584
C            2.45422269899657        0.35229953380139       -0.01900265126304
N            1.14475447157238        0.09558133682336        0.00654703618391
C            5.70959648091681       -1.28785082069563        0.24662014027890
C            5.89122510586580       -2.63135481711804        0.46979727283180
C            7.20843861001244       -3.12234603568258        0.53966526999909
C            8.31349387665392       -2.31599226459090        0.39557872032915
C            8.16299322173983       -0.92911841903758        0.16544866703095
C            9.17545591454483        0.04303110425869       -0.00613174687153
C            8.84598204944177        1.36021584374066       -0.22603354806949
C            7.51501575228648        1.81337751844408       -0.29177403082447
C            6.50648546489883        0.89458916448082       -0.12799193460912
C            6.84789773147135       -0.46029967225473        0.09861566556709
C           -2.09544798480942        1.70338905697377       -0.58699598090860
C           -3.43049060315973        1.37733867484513       -0.54311806201766
C           -6.65550323913437       -1.98618274546959        0.71624028795011
C           -7.09041963905937       -3.29365537108089        0.60684800731611
H           -6.84214972454859       -5.17453458186277       -0.38827535405022
H           -5.01828153093818       -4.35605390449117       -1.83847213321660
H           -4.24725519715959       -2.02645698224496       -1.66118410215258
H           -7.50721686008561       -0.06089655277888       -1.27599028702100
H           -9.23767958948162        1.66685738597695       -0.99604575213585
H           -8.88589785435134        3.53000162558136        0.58691484844296
H           -6.79328232588884        3.64735985679917        1.89372125701232
H           -5.06841158497801        1.91340636120732        1.62544151680999
H           -3.18074593996103       -1.72873696368996        0.78433521778080
H           -0.79498471160359       -1.13419578666608        0.68788458018785
H            0.14776017908458        3.27505264133280       -0.42879349822060
H            5.05034377813225       -3.29709975201477        0.58821147945845
H            7.34843548793830       -4.17901276608371        0.71442865566620
H            9.30520234857270       -2.73913217723083        0.45688209549349
H           10.21197238821265       -0.25709156594842        0.03589810982572
H            9.63647509663305        2.08498228178694       -0.35470431364560
H            7.29792156420727        2.85580259176212       -0.46681238198184
H           -1.80918117113642        2.65650716282150       -1.00395255480937
H           -4.16417363979267        2.07894296966227       -0.91068485845763
H           -7.10981448096319       -1.31709513708245        1.43216895240314
H           -7.88877956946163       -3.64422705940348        1.24411615114385
