60
 energy: -98.192303427662 gnorm: 0.000033088776 xtb: 6.7.1 (edcfbbe)
C           -7.69680728662129       -2.79673478960221       -0.41259007209666
C           -6.52723396920753       -2.88300533014650       -1.15088263904411
C           -5.54330330932380       -1.92144005588626       -1.01710631611759
C           -5.71882329538113       -0.86092202218664       -0.12985750618502
N           -4.72923172332160        0.13065529806343        0.00436465010188
C           -5.13973157978051        1.47366644656136        0.09225524646418
C           -6.17581720624379        1.94027903178575       -0.71444546688977
C           -6.59494824633185        3.25370006891607       -0.61519442283479
C           -5.98625049410431        4.11731831619740        0.28117549160592
C           -4.95571920243321        3.65662101934478        1.08492176308121
C           -4.53434885731624        2.34302305511676        0.99807805501253
C           -3.39122294125862       -0.20756854762987        0.05298345903596
C           -2.98234212872651       -1.44813754514781        0.56183118762553
C           -1.65131220031013       -1.78981583369256        0.60851041324441
C           -0.66525625678143       -0.90816177198819        0.15058063093476
C            0.75277018526974       -1.22396284588997        0.18261571827325
C            1.24680683079455       -2.53999676918557        0.39619297207737
N            2.51697672397857       -2.82938264431114        0.44667364506153
C            3.39044343071762       -1.81806742770618        0.27737373825766
N            4.70468009767498       -2.11470525055772        0.34969305565600
C            5.50798092212831       -1.10178793335642        0.15791374600121
C            5.02799672387517        0.24074340236748       -0.11620849019713
N            3.76094097173742        0.54324208380128       -0.18548087127609
C            2.91326441483081       -0.49535425069762        0.02044929255178
N            1.60640457823257       -0.22741253982967       -0.01655337707745
C            6.18420202621444        1.10841802418637       -0.27289512619612
C            6.37839976059140        2.44334778958770       -0.53365248612260
C            7.69997112416626        2.92223346668958       -0.60495066099040
C            8.79716439578203        2.11222503713763       -0.42582178806650
C            8.63363035704883        0.73374327769890       -0.15730415486218
C            9.63678420305695       -0.24029506284992        0.05335884703224
C            9.29488431382948       -1.54795481425386        0.30822455974194
C            7.95988756089666       -1.98926150127798        0.37324557734808
C            6.96005928728218       -1.06828017679416        0.17251628623384
C            7.31436581134796        0.27679303804471       -0.09012090760355
C           -1.07688175423331        0.33548041583232       -0.34878043196934
C           -2.40452111822905        0.68014160472018       -0.40076873786272
C           -6.89592705406700       -0.77741822131226        0.61116258988477
C           -7.87704343367792       -1.74014456015289        0.46549569221841
H           -8.46414577002824       -3.54808726813838       -0.52251607384911
H           -6.38233810851396       -3.69936929253276       -1.84312773768350
H           -4.63673234947525       -1.98201214422860       -1.60156111115714
H           -6.64639639312003        1.26830882554944       -1.41702071528100
H           -7.39719485336664        3.60557616872445       -1.24683774407760
H           -6.31395043008584        5.14326844168534        0.35466098125804
H           -4.48093850610973        4.32141370318128        1.79145153305231
H           -3.73837869195851        1.98205829435510        1.63306066010391
H           -3.72401308977652       -2.13619634690179        0.93883398411661
H           -1.37682724749396       -2.74134199804547        1.03674586262133
H            0.57874984661719       -3.38332300649008        0.50902035852070
H            5.54376497371895        3.11148178733726       -0.67962289074305
H            7.84984769151184        3.97221352187591       -0.80927598013408
H            9.79275200844073        2.52585218904263       -0.48919299338856
H           10.67596272023991        0.05083110993802        0.01372018153956
H           10.07844857204396       -2.27437191912354        0.46651550431334
H            7.73341013685525       -3.02454798610992        0.57644068322977
H           -0.31836696365831        1.01393812611817       -0.70686773008819
H           -2.69661781097211        1.63655063740594       -0.80732732756574
H           -7.03339421805624        0.04355241690923        1.29940567295209
H           -8.78453117892650       -1.66761874215582        1.04649272020531
