56
 energy: -91.680943054664 gnorm: 0.000055148473 xtb: 6.7.1 (edcfbbe)
O           -0.03467143975605       -4.23805389424061       -2.52131980504501
C           -0.51324050734083       -3.13521679903765       -2.71365663356476
O           -1.61369186487058       -2.97817977503666       -3.47384676878640
C            0.01391402615977       -1.88554917377878       -2.16715621839899
C            1.13612957346221       -1.93140304441351       -1.32787537742033
C            1.64913036042307       -0.78441874756963       -0.78213143192877
C            1.05656970941813        0.47042874308639       -1.03968932940587
C            1.54543816519224        1.66085169648708       -0.41621601486655
C            0.68455988866663        2.78287777987577       -0.16208135105656
C           -0.64903775640446        2.78927293031445        0.11740703502923
C           -1.51586953091155        1.67704651897323        0.39207602851778
C           -2.91424384529288        1.82185045612904        0.06330588228373
C           -3.91556226108457        1.20956233872831        0.83599527845612
C           -5.24940662158951        1.38716690878858        0.53423063906553
C           -5.62790117564138        2.17312282687732       -0.54523635307199
C           -4.65358499755738        2.79164951046793       -1.31636093292346
C           -3.31830621143767        2.62644727034802       -1.01557392244962
C           -1.03132331314757        0.49391241128624        1.03290527122736
C            0.08739250367139        0.53368306256578        1.89257076668965
C            0.58787776210253       -0.61184152400593        2.45526536576829
C            0.00011324621904       -1.85401233646212        2.18640259003810
C            0.57973710952808       -3.05969387247823        2.77729003886950
O            1.58134682391053       -3.08479624217446        3.46895093149348
O           -0.09698332605841       -4.18784150229172        2.49087178435638
C           -1.12463353372237       -1.90762334120743        1.35214110984772
C           -1.62980060464242       -0.76160242752700        0.79482650270497
C            2.94341049739818        1.80247061175809       -0.08456872476569
C            3.94394780381149        1.17151188509879       -0.84299820237450
C            5.27754202175200        1.34379758718443       -0.53726879737384
C            5.65651388721436        2.14327055280909        0.53199247975791
C            4.68309522311201        2.78121723622038        1.28824325228431
C            3.34818936756327        2.62133449047296        0.98320988061403
C           -0.05939773729185        0.50267548451821       -1.90311150956937
C           -0.56742278849384       -0.64537612856396       -2.45575606391734
H           -1.91294436543674       -3.84025381495255       -3.80494773394420
H            1.57449861238507       -2.89460030747195       -1.11116275399214
H            2.48262899398732       -0.84386493572048       -0.09876232108436
H            1.17298052479014        3.74958156026241       -0.20330848767647
H           -1.13136960367375        3.75959042989551        0.14202586984415
H           -3.63316383528720        0.62725211743458        1.70046893763869
H           -6.00369923318988        0.91632075691531        1.14818333296958
H           -6.67347305102523        2.30764029814031       -0.77930161964092
H           -4.94240752502879        3.40444516670209       -2.15810180318823
H           -2.56922548825547        3.09693148846347       -1.63490453358979
H            0.52665568778955        1.48674265814446        2.14026288423724
H            1.44124450793574       -0.58147871380786        3.11700607665035
H            0.34202392583416       -4.95114424639086        2.89939485581838
H           -1.57583865175821       -2.86461570301582        1.14034465197245
H           -2.46602043201479       -0.82348193252103        0.11511880476253
H            3.66179661422035        0.57728578605028       -1.69945262290259
H            6.03123956930888        0.85727847300705       -1.13961826089965
H            6.70183626871863        2.27259866642230        0.77003291901591
H            4.97227407612906        3.40463466762786        2.12200639976978
H            2.59981729686293        3.10659479926887        1.59198679934251
H           -0.49197646031509        1.45554607744062       -2.16329603402088
H           -1.41682721763014       -0.60428892124637       -3.12001467335894
