56
 energy: -91.735244947057 gnorm: 0.000083663710 xtb: 6.7.1 (edcfbbe)
O            0.35452246807225       -4.32246593271307       -2.35147553242403
C           -0.09364013109453       -3.24481805508566       -2.68477327862195
O           -1.03683131585120       -3.14153849244453       -3.63238470766777
C            0.31707931958739       -1.95225140055171       -2.11323729540553
C            1.26654836338172       -1.94053276701962       -1.09079288717709
C            1.66883072685535       -0.74888674604785       -0.52941953293785
C            1.12280834191004        0.46004967999437       -0.96501921781803
C            1.57605832510309        1.72576387977397       -0.37064447899815
C            0.73687378499073        2.71949206634943       -0.01282260306044
C           -0.70670174284177        2.72515015220442       -0.03023747913153
C           -1.55288601543853        1.74569375445670        0.34985480832898
C           -3.00621321505355        1.91870090222469        0.20463050306552
C           -3.87513960134920        1.43058422560602        1.18113677554828
C           -5.24099909904825        1.60405812341875        1.05968780747779
C           -5.76613683093948        2.25947616289749       -0.04250583159647
C           -4.91412625230447        2.74119510089388       -1.02306957695415
C           -3.54716555604279        2.57432752522104       -0.90125703783637
C           -1.10617459897766        0.48984219382893        0.97010118971184
C           -0.16929990519530        0.48953580940383        2.00432294161162
C            0.22503804831545       -0.69254986578096        2.59081124480722
C           -0.31318027940031       -1.90626885646861        2.15982249185476
C            0.14369399888734       -3.15238600332964        2.79604976429560
O            1.00504725562058       -3.21706997444970        3.64890065081611
O           -0.48266694567078       -4.24957825170235        2.34749980841961
C           -1.26431422081077       -1.91131889953456        1.13982493773196
C           -1.65812953350624       -0.72483654646699        0.55948976644889
C            3.03036085984718        1.89081966769121       -0.22511879896430
C            3.89799671806150        1.38325787870993       -1.19270403440909
C            5.26477811000223        1.54786755037146       -1.06971741080701
C            5.79187095585777        2.21317737757851        0.02557812047128
C            4.94100165586730        2.71427849966682        0.99734427579881
C            3.57309154840464        2.55705794539057        0.87339283600916
C            0.18748128104977        0.44330702311071       -2.00039612179686
C           -0.21468459530363       -0.74559898262805       -2.56950294260809
H           -1.27071182833412       -4.02043749482760       -3.97335621604489
H            1.67788923942835       -2.88127063132138       -0.75581743620785
H            2.40268601451372       -0.74670085952176        0.26278500998790
H            1.17835395463506        3.66329119486263        0.28726309327054
H           -1.14058504187043        3.66618646956033       -0.34928058021431
H           -3.47185455056457        0.92543129938708        2.04715773960091
H           -5.89961911914590        1.22616542156070        1.82854113802388
H           -6.83402669206796        2.39177832255636       -0.13767338471579
H           -5.31828327609010        3.24558428608923       -1.88910268647353
H           -2.89297762035360        2.93778328592844       -1.67985619058954
H            0.23855539857957        1.42664716306669        2.35078180779216
H            0.94878684452011       -0.70466452938967        3.39247173192427
H           -0.13632185563900       -5.04137056872860        2.79068087424035
H           -1.68623186853041       -2.84886153357217        0.81307797205820
H           -2.39368732123462       -0.73153721405613       -0.23101089943158
H            3.49333297920656        0.86878097365148       -2.05257220232179
H            5.92271581605128        1.15458540232346       -1.83138981634512
H            6.86051551088446        2.33775347155128        0.12262194699273
H            5.34666105655820        3.22597622473862        1.85836824424064
H            2.91953424743906        2.93543002448435        1.64546259208537
H           -0.21395557755445        1.37680748975291       -2.36374785858858
H           -0.93577438672549       -0.75364059959280       -3.37194935234877
