56
 energy: -91.737700578117 gnorm: 0.000043820268 xtb: 6.7.1 (edcfbbe)
O            6.18487139054925        2.62042791619423        1.75341740978494
C            6.09421208571431        1.79229288089861        0.87058286138196
O            7.12299691109208        1.52357221675529        0.05346454003051
C            4.88679920952020        0.99966964584430        0.58500409447860
C            3.74715438927001        1.20415726841406        1.36423454906992
C            2.59841912539638        0.48174025703796        1.12088053321648
C            2.55929247362758       -0.46513888063558        0.09438337573754
C            1.34523519027160       -1.24499495462097       -0.18146484776151
C            0.11842310031650       -0.67507621232823       -0.27326564390598
C           -0.14377766261776        0.72893220355035       -0.25986165900701
C           -1.37390328305561        1.29580729430090       -0.19867979684502
C           -1.54079369528666        2.74885195071083       -0.32484617457337
C           -0.71934856304401        3.50433752155335       -1.16283540517413
C           -0.88267514532888        4.87320585171824       -1.26253235172115
C           -1.86571914732396        5.51562100142732       -0.52707268503705
C           -2.68946818338397        4.77684006305530        0.30706303034761
C           -2.53248470625949        3.40738866112113        0.40504561619576
C           -2.59659921005619        0.50871077782213        0.00974174101353
C           -2.67355702795344       -0.46729090471513        1.00619600432687
C           -3.82689984460917       -1.20216290964336        1.18799560966041
C           -4.93514255850588       -0.97581104787658        0.37150903300215
C           -6.18293016938239       -1.74105937267828        0.53001120617738
O           -7.17987626024262       -1.58504533862646       -0.14466277100820
O           -6.13514436257056       -2.65677612151828        1.50844032782910
C           -4.86856204264408        0.00494380903051       -0.62055220075045
C           -3.71680973052399        0.74012114697913       -0.79390524709208
C            1.51457489638663       -2.69531434149881       -0.33405204464538
C            0.71949411410301       -3.43140700190300       -1.21386305980247
C            0.88091162809690       -4.79887665590910       -1.33375750802135
C            1.83559397280343       -5.45944568391406       -0.57728582460857
C            2.63411874079130       -4.73986932865689        0.29721399889406
C            2.47903203554895       -3.37179940452141        0.41576164808056
C            3.70910967105759       -0.67473636964449       -0.67217381658057
C            4.85774984233418        0.05012073311286       -0.43788826436713
H            7.88986569516447        2.07300915871547        0.28418168040386
H            3.78833919371567        1.93459363093965        2.15880872016878
H            1.72797183174085        0.62979975428667        1.74198918337480
H           -0.73563177591378       -1.32390768507819       -0.41220966200228
H            0.71389233721146        1.38172062083973       -0.34960835466567
H            0.03579063882654        3.01185952899567       -1.75767722174975
H           -0.24237659975910        5.44270522803332       -1.92098350965729
H           -1.99104659719705        6.58563100291604       -0.60595720301604
H           -3.45813000332245        5.27097457790823        0.88388101371377
H           -3.17353109757024        2.83957624632899        1.06427839004069
H           -1.82641893567449       -0.62985058231248        1.65552971423806
H           -3.88196984940079       -1.95176356470198        1.96196689705533
H           -6.98042138624353       -3.13125380342308        1.56828952408654
H           -5.73563803497670        0.17071299058827       -1.24273179905350
H           -3.66843896075447        1.49512926109319       -1.56471475311200
H           -0.01310027020782       -2.92469541395294       -1.82474910436957
H            0.26096071448274       -5.35297002575293       -2.02404473195836
H            1.95891399850237       -6.52846119473402       -0.67150915599300
H            3.38077208122878       -5.24815781203300        0.89038483233581
H            3.09922512782625       -2.81926636931906        1.10711585160085
H            3.68740882577238       -1.40719012095298       -1.46575328751398
H            5.73926588245530       -0.11013309922336       -1.03873330225854
