  52
  -78.9003353824000       0.334352400540919      !
 O         -1.9897938548       -0.2260613168        2.4673391887
 C         -2.9269410618       -1.0943764319        1.8667829912
 C         -3.6291099201       -0.4868311867        0.6757362202
 C         -5.0137143811       -0.4907128776        0.5979329712
 C         -5.6718084600        0.0893158088       -0.4733902508
 C         -4.9419093326        0.7030987736       -1.4777974691
 C         -3.5624055334        0.7197691706       -1.4107006742
 C         -2.8876703855        0.1146434791       -0.3507836168
 C         -1.4184758006        0.1175923206       -0.3421226727
 C         -0.7112186346        1.3515400248       -0.2164514699
 C         -1.3822111309        2.5607596063       -0.0271011958
 C         -0.6831588170        3.7587027474        0.1303605796
 C          0.6940976969        3.7565417853        0.1302333369
 C          1.3892667498        2.5563616076       -0.0271242031
 C          0.7143558425        1.3492654005       -0.2163128533
 C          1.4180299698        0.1132537947       -0.3420344341
 C          2.8873270316        0.1083100492       -0.3524113695
 C          3.5606605934        0.7096806265       -1.4152685969
 C          4.9401815882        0.6958097189       -1.4822306171
 C          5.6713116099        0.0884724503       -0.4747805435
 C          5.0144526454       -0.4891695591        0.5984922764
 C          3.6298561363       -0.4883267856        0.6760490550
 C          2.9294292962       -1.0942390654        1.8689293869
 O          1.9903822866       -0.2266258578        2.4670650787
 C          0.7104030675       -1.1106084796       -0.5316731295
 C          1.3821690112       -2.3095363053       -0.7805654505
 C          0.6833464477       -3.5002194144       -0.9889619406
 C         -0.6939502099       -3.4979014970       -0.9904683901
 C         -1.3892493520       -2.3049275526       -0.7832797390
 C         -0.7141180039       -1.1083250580       -0.5325094974
 H         -1.4330274042        0.0937694793        1.7414585614
 H         -3.6529467632       -1.3397864732        2.6440360381
 H         -2.4187077145       -2.0191587014        1.5573438503
 H         -5.5836439603       -0.9496354488        1.3925938254
 H         -6.7498484759        0.0715284427       -0.5174648984
 H         -5.4457648011        1.1666934546       -2.3123577591
 H         -2.9841020536        1.1839920249       -2.1962368227
 H         -2.4588353982        2.5655698111        0.0060220251
 H         -1.2305788904        4.6788995180        0.2643766702
 H          1.2445378687        4.6748553814        0.2646619268
 H          2.4658987729        2.5577277450        0.0058812361
 H          2.9813963612        1.1701956396       -2.2023090901
 H          5.4429880650        1.1567785573       -2.3188547570
 H          6.7493922205        0.0737268068       -0.5181067215
 H          5.5853935122       -0.9429340880        1.3954180797
 H          3.6558963895       -1.3363103739        2.6469163567
 H          2.4229851524       -2.0207882035        1.5617330064
 H          1.4325106361        0.0896308122        1.7404042569
 H          2.4588147902       -2.3096243844       -0.8274184758
 H          1.2308756681       -4.4145228676       -1.1596737665
 H         -1.2442822954       -4.4101239381       -1.1633034778
 H         -2.4657403846       -2.3015203939       -0.8329205302
  52
  -78.8999412642000       0.220333362160357      !
 O         -1.9389758968       -0.5289233902        2.4145658063
 C         -2.8870961148        0.4771004657        2.1271091326
 C         -3.6108671314        0.2598101165        0.8198775835
 C         -4.9968198316        0.2555130282        0.7743114183
 C         -5.6727372170        0.0267500531       -0.4122745843
 C         -4.9590152146       -0.2216305986       -1.5728518123
 C         -3.5779442781       -0.2264141017       -1.5413833247
 C         -2.8864765484        0.0284921452       -0.3578267521
 C         -1.4172593544        0.0519068623       -0.3719143394
 C         -0.7349809596        1.2877763532       -0.1697335831
 C         -1.4313722644        2.4891932441       -0.0226581599
 C         -0.7594162024        3.6874881633        0.2272263771
 C          0.6138073905        3.6963859078        0.3341672484
 C          1.3354102737        2.5146642158        0.1550399518
 C          0.6894728423        1.3107538594       -0.1309248176
 C          1.4177651563        0.1044017554       -0.3589076117
 C          2.8867865046        0.1205105839       -0.3354023872
 C          3.5776155465        0.8377274425       -1.3115057193
 C          4.9585825709        0.8482360238       -1.3422515272
 C          5.6732033527        0.1481751978       -0.3844570604
 C          4.9980967650       -0.5465074664        0.6048263767
 C          3.6121452586       -0.5710114145        0.6449638053
 C          2.8912387744       -1.3063718155        1.7495186368
 O          1.9326541932       -0.5140244453        2.4174102000
 C          0.7353852569       -1.1076726119       -0.6744882038
 C          1.4314714734       -2.2661424254       -1.0255321831
 C          0.7591995650       -3.4631939533       -1.2808314267
 C         -0.6140552128       -3.5141937601       -1.1871211684
 C         -1.3355096497       -2.3604512072       -0.8747736339
 C         -0.6891126648       -1.1439104286       -0.6494150425
 H         -1.3903066461       -0.6025745098        1.6193243645
 H         -2.3849776482        1.4548446836        2.1075093774
 H         -3.5980301700        0.4667764350        2.9551339141
 H         -5.5531339826        0.4274196475        1.6842012593
 H         -6.7516674422        0.0323429579       -0.4276030610
 H         -5.4765933376       -0.4097132401       -2.5012468865
 H         -3.0128804029       -0.4062495492       -2.4443734400
 H         -2.5056201547        2.4883927418       -0.1103730239
 H         -1.3251225920        4.5991288463        0.3443599645
 H          1.1412668064        4.6127244328        0.5498711528
 H          2.4092831828        2.5296013844        0.2380981427
 H          3.0117704982        1.3699122619       -2.0622596084
 H          5.4753646925        1.4000674770       -2.1126794809
 H          6.7521085441        0.1508965593       -0.4005470320
 H          5.5552496158       -1.0743488598        1.3650148707
 H          3.6028483246       -1.6257284363        2.5130338780
 H          2.3999496515       -2.1975906730        1.3334184459
 H          1.3819916766       -0.1293691300        1.7188757766
 H          2.5056511562       -2.2300592276       -1.1061870393
 H          1.3247404544       -4.3446777876       -1.5415360433
 H         -1.1416576236       -4.4394696083       -1.3602267956
 H         -2.4094743072       -2.4069688901       -0.8058463075
  52
  -78.8995374771000       0.143718461269524      !
 O         -1.8408267579       -1.0661081501        2.2768543644
 C         -2.6139327337        0.1114375665        2.1486972225
 C         -3.4792612789        0.1068145866        0.9117232682
 C         -4.8622528655        0.0907209532        1.0058981182
 C         -5.6517649371        0.0546385565       -0.1309216862
 C         -5.0578234017        0.0207715693       -1.3808425785
 C         -3.6790292044        0.0288896768       -1.4891008709
 C         -2.8782234761        0.0803593789       -0.3527140889
 C         -1.4096309444        0.1080531057       -0.4719635955
 C         -0.7209393086        1.3400316126       -0.2940236286
 C         -1.4138825616        2.5403596482       -0.1224155603
 C         -0.7333515596        3.7450535552        0.0676690282
 C          0.6432261900        3.7590034769        0.1006728478
 C          1.3597405146        2.5709816264       -0.0660327970
 C          0.7050395857        1.3588173848       -0.2875816115
 C          1.4198406767        0.1336475385       -0.4511321711
 C          2.8844091556        0.1134202714       -0.3280958824
 C          3.6749093390        0.7342757545       -1.2933137683
 C          5.0538127249        0.7094523796       -1.2047145479
 C          5.6639195355        0.0717416067       -0.1377157888
 C          4.8876502778       -0.5306631827        0.8377732846
 C          3.5035626145       -0.5211153585        0.7583001107
 C          2.6699363733       -1.1562673632        1.8462247379
 O          1.7369025915       -0.2693085804        2.4266017975
 C          0.7280368168       -1.0781160859       -0.7454031243
 C          1.4139077617       -2.2561224301       -1.0450134940
 C          0.7270247098       -3.4438029156       -1.3114913050
 C         -0.6496149667       -3.4659797041       -1.2807050546
 C         -1.3606539061       -2.2974093612       -0.9999909757
 C         -0.6973628399       -1.0933603606       -0.7496876284
 H         -1.3531634973       -1.1539761975        1.4465310937
 H         -1.9493999821        0.9852896213        2.1281681406
 H         -3.2337995320        0.1604403789        3.0453742323
 H         -5.3233043504        0.1040110263        1.9826316693
 H         -6.7270453710        0.0472963718       -0.0395415115
 H         -5.6667686631       -0.0124540479       -2.2715603066
 H         -3.2077893181        0.0062111398       -2.4611491695
 H         -2.4919313393        2.5297682074       -0.1367375491
 H         -1.2947833195        4.6577958172        0.1952124460
 H          1.1785770582        4.6823650092        0.2595923043
 H          2.4359245207        2.5884660883       -0.0196745376
 H          3.1915148930        1.2202708746       -2.1284056399
 H          5.6505842118        1.1880834518       -1.9663194898
 H          6.7399084511        0.0505888533       -0.0589171422
 H          5.3621893732       -1.0129517012        1.6799362106
 H          3.3127247376       -1.4890643462        2.6630373163
 H          2.1409499955       -2.0287934240        1.4380219169
 H          1.2175111129        0.0852778169        1.6905080933
 H          2.4914553332       -2.2445156558       -1.0741762921
 H          1.2849428797       -4.3400870944       -1.5351362434
 H         -1.1877546878       -4.3811291021       -1.4736891825
 H         -2.4377462837       -2.3189606126       -0.9749388716
  52
  -78.8992765165000       0.109039379302525      !
 O         -2.1519287824       -0.1307688143        2.4870199869
 C         -3.0440565278       -1.0286823376        1.8601147584
 C         -3.6846516152       -0.4560916363        0.6188103968
 C         -5.0633069129       -0.4499945488        0.4687678780
 C         -5.6572331389        0.1047541485       -0.6523991945
 C         -4.8694807527        0.6844713842       -1.6329775610
 C         -3.4952089821        0.6915985630       -1.4931785618
 C         -2.8851500890        0.1092470373       -0.3833113369
 C         -1.4169443253        0.1007324651       -0.3034370455
 C         -0.7134507946        1.3315278790       -0.1394892426
 C         -1.3904262353        2.5336501894        0.0733657268
 C         -0.6950442025        3.7272654865        0.2739939725
 C          0.6823285765        3.7279185390        0.2859610431
 C          1.3825225356        2.5351463155        0.0959514629
 C          0.7110801090        1.3325912500       -0.1292127983
 C          1.4185117800        0.1026597990       -0.2863495662
 C          2.8862402815        0.1131090490       -0.3667262929
 C          3.4879160965        0.7153821308       -1.4714332148
 C          4.8596780238        0.7015184655       -1.6297049430
 C          5.6554771636        0.0948461313       -0.6719227403
 C          5.0714322477       -0.4755774998        0.4461757613
 C          3.6945108597       -0.4739923458        0.6155619779
 C          3.0761019753       -1.0748186159        1.8556024863
 O          2.1248366891       -0.2368794145        2.4739741334
 C          0.7145868553       -1.1255560535       -0.4636753152
 C          1.3887911941       -2.3252291047       -0.7004937432
 C          0.6930349700       -3.5213405259       -0.8894452432
 C         -0.6839810132       -3.5229951137       -0.8897964692
 C         -1.3823452105       -2.3281260793       -0.7038240879
 C         -0.7106593647       -1.1263911816       -0.4680436233
 H         -1.5760584819        0.1948925921        1.7788147049
 H         -3.8078146459       -1.2670791627        2.6026698917
 H         -2.5054014485       -1.9516271635        1.6011860177
 H         -5.6792063372       -0.8816519968        1.2441961261
 H         -6.7314510442        0.0943904120       -0.7540746257
 H         -5.3237282134        1.1292903521       -2.5053301648
 H         -2.8711502392        1.1322127582       -2.2571123617
 H         -2.4676668647        2.5349827725        0.0907483864
 H         -1.2454809193        4.6422442687        0.4297793819
 H          1.2288187987        4.6435051816        0.4516262405
 H          2.4592834555        2.5377047775        0.1318883094
 H          2.8569179338        1.1731438056       -2.2193415456
 H          5.3054586045        1.1581710394       -2.5001223138
 H          6.7278107379        0.0748027590       -0.7896852105
 H          5.6940407431       -0.9268238721        1.2050504883
 H          3.8481331660       -1.2620599865        2.6044961186
 H          2.6015486088       -2.0335791020        1.5975810719
 H          1.5375219621        0.0569597658        1.7603284562
 H          2.4649063769       -2.3231471932       -0.7542330752
 H          1.2433557694       -4.4362235748       -1.0476872267
 H         -1.2319373655       -4.4393522958       -1.0475685459
 H         -2.4586005809       -2.3279079158       -0.7579209284
  52
  -78.8991126979000       9.168484491749045E-002 !
 O         -2.2963152773       -2.1776984794        1.8265237269
 C         -2.6551259338       -0.8187642546        1.9841830104
 C         -3.4893104355       -0.2955574238        0.8384000595
 C         -4.8744964796       -0.2926641201        0.9088808734
 C         -5.6377990953        0.1979333102       -0.1366456136
 C         -5.0154704728        0.7047015703       -1.2650990275
 C         -3.6352530264        0.7080656492       -1.3481138246
 C         -2.8612484511        0.1992512789       -0.3094529553
 C         -1.3921386369        0.1893839535       -0.4152577986
 C         -0.6577852182        1.3888146084       -0.2100154145
 C         -1.2952545015        2.6075038283        0.0328772011
 C         -0.5618938548        3.7854452724        0.1886980412
 C          0.8119836910        3.7589190947        0.0952148377
 C          1.4743589514        2.5474488492       -0.1206528676
 C          0.7667207950        1.3510082552       -0.2452993758
 C          1.4356210559        0.1007921869       -0.4127475170
 C          2.9012197852        0.0512122318       -0.3381083687
 C          3.6390635092       -0.2542681550       -1.4813163409
 C          5.0198151040       -0.2785365821       -1.4507634837
 C          5.6861844915       -0.0104444938       -0.2667003646
 C          4.9633031734        0.2680749444        0.8810953136
 C          3.5771599003        0.3031744747        0.8646486067
 C          2.8058133197        0.5831970156        2.1327604788
 O          1.7929234235       -0.3621077249        2.4019290211
 C          0.6954313808       -1.0887388752       -0.6879728432
 C          1.3191794334       -2.3222206317       -0.8769468419
 C          0.5776256173       -3.4711139579       -1.1672111169
 C         -0.7931998502       -3.4006372616       -1.2704548871
 C         -1.4467370112       -2.1853353023       -1.0469481092
 C         -0.7280894902       -1.0283321594       -0.7242108037
 H         -1.8610708512       -2.2340595349        0.9608707748
 H         -1.7466995782       -0.2098636037        2.0791024592
 H         -3.2188957672       -0.7671523065        2.9178777601
 H         -5.3555405965       -0.6773688073        1.7960990544
 H         -6.7147629070        0.1913827600       -0.0672025789
 H         -5.6036757643        1.0970366091       -2.0809057404
 H         -3.1416907436        1.0981045773       -2.2266916246
 H         -2.3712173019        2.6332316598        0.0959095123
 H         -1.0807025814        4.7133201417        0.3741550171
 H          1.3867127871        4.6669145591        0.1955141217
 H          2.5498494683        2.5341125758       -0.1987211073
 H          3.1107447145       -0.4481223550       -2.4034771032
 H          5.5740249029       -0.5044497623       -2.3490869655
 H          6.7645946858       -0.0268358282       -0.2335349327
 H          5.4829473472        0.4575288624        1.8093307523
 H          2.3597563454        1.5874622313        2.0707490943
 H          3.4782829044        0.5555765966        2.9926656215
 H          1.2856275606       -0.4466899444        1.5801768021
 H          2.3908914519       -2.3899162038       -0.7938438781
 H          1.0903142522       -4.4090322805       -1.3140558654
 H         -1.3726171190       -4.2781000645       -1.5123143782
 H         -2.5196650702       -2.1308995083       -1.1369542735
  52
  -78.8990397373000       8.487253705703232E-002 !
 O         -2.1978695235       -1.9093731109        2.0414928053
 C         -2.6056648076       -0.5552748718        2.0669812305
 C         -3.4652775159       -0.1816977145        0.8820140244
 C         -4.8490921644       -0.1956440823        0.9727450133
 C         -5.6354049330        0.1515907171       -0.1124095693
 C         -5.0380745432        0.5274650738       -1.3036961385
 C         -3.6592733505        0.5484139305       -1.4068240881
 C         -2.8619616561        0.1862117282       -0.3253965801
 C         -1.3936382112        0.1997197265       -0.4447617189
 C         -0.6874870831        1.4308695118       -0.3614374031
 C         -1.3589722716        2.6489401623       -0.2367297292
 C         -0.6581734710        3.8506010991       -0.1188125931
 C          0.7186729999        3.8436965808       -0.0976295989
 C          1.4138086699        2.6358940475       -0.1982036324
 C          0.7393447793        1.4244855461       -0.3526470994
 C          1.4350733207        0.1780111362       -0.4227521242
 C          2.8993838961        0.1454594158       -0.3224841886
 C          3.6729593330        0.7267292941       -1.3268953025
 C          5.0526648551        0.6877404368       -1.2745984255
 C          5.6829704633        0.0756270756       -0.2039587693
 C          4.9254490775       -0.4838402053        0.8110282925
 C          3.5394720624       -0.4591434538        0.7694425144
 C          2.7355832563       -1.0580272983        1.9002677603
 O          1.7351090681       -0.2017632089        2.4068897578
 C          0.7221051729       -1.0425175079       -0.6226158531
 C          1.3830315031       -2.2523416297       -0.8395525525
 C          0.6716801550       -3.4406103111       -1.0307136983
 C         -0.7050261991       -3.4280031991       -1.0350569909
 C         -1.3918031047       -2.2249688582       -0.8525739559
 C         -0.7015989208       -1.0266390343       -0.6340717501
 H         -1.7678897416       -2.0358110230        1.1809453750
 H         -1.7199845388        0.0930870894        2.0921932306
 H         -3.1652549083       -0.4306340188        2.9962409946
 H         -5.3108114710       -0.4795484362        1.9069195836
 H         -6.7110167063        0.1351852110       -0.0260457671
 H         -5.6446653720        0.8055280301       -2.1523908847
 H         -3.1853823520        0.8382974696       -2.3335825339
 H         -2.4370331078        2.6543469652       -0.2286530886
 H         -1.2040297501        4.7777342857       -0.0336611057
 H          1.2706314781        4.7649727764        0.0075832292
 H          2.4900541948        2.6379472919       -0.1456759762
 H          3.1724387385        1.1875679799       -2.1660421048
 H          5.6341477216        1.1329189134       -2.0676310176
 H          6.7603206089        0.0416068512       -0.1537181137
 H          5.4175830563       -0.9433949848        1.6558736000
 H          3.3915871787       -1.2834984593        2.7431984084
 H          2.2732655838       -1.9956159887        1.5580256700
 H          1.2206559757        0.0826769469        1.6362018174
 H          2.4602480985       -2.2667379415       -0.8693246176
 H          1.2113642209       -4.3630127279       -1.1807568178
 H         -1.2621986493       -4.3392959118       -1.1881349738
 H         -2.4687659076       -2.2121228019       -0.8997221118
  52
  -78.8974628789000       1.599901475215228E-002 !
 O         -2.0481508191       -1.9183413005        1.9123536263
 C         -2.5658470875       -0.6069523809        2.0342711908
 C         -3.4575573383       -0.2229524839        0.8783369577
 C         -4.8385632976       -0.2263128362        1.0026624809
 C         -5.6472235676        0.1218520247       -0.0658007769
 C         -5.0761415744        0.4807711196       -1.2746227455
 C         -3.6996863221        0.4853253096       -1.4128891716
 C         -2.8815628811        0.1307897415       -0.3463758676
 C         -1.4136101108        0.1333234829       -0.4909775863
 C         -0.6868269570        1.3293153882       -0.2466548908
 C         -1.3284225943        2.5330690843        0.0496056128
 C         -0.5969138072        3.7029880705        0.2781200103
 C          0.7775628713        3.6823133061        0.2100298321
 C          1.4461148376        2.4853767963       -0.0688618839
 C          0.7379312273        1.2980750592       -0.2841276841
 C          1.4083544772        0.0649822619       -0.5090737377
 C          2.8748158716        0.0044741029       -0.3719571768
 C          3.6940292223        0.0567438206       -1.4945012056
 C          5.0699550889        0.0031786389       -1.3640087979
 C          5.6404857854       -0.1078873002       -0.1076052048
 C          4.8310107743       -0.1729164135        1.0136842222
 C          3.4502446258       -0.1211910292        0.8969677155
 C          2.5607588285       -0.1970290176        2.1150690173
 O          2.1196825549        1.0744270701        2.5516863479
 C          0.6813829912       -1.1170323297       -0.8166406612
 C          1.3219222593       -2.3296399835       -1.0751638822
 C          0.5896493832       -3.4834153723       -1.3724579985
 C         -0.7855934889       -3.4383896190       -1.4096460914
 C         -1.4531024814       -2.2409304582       -1.1350157622
 C         -0.7438756629       -1.0746177867       -0.8281235179
 H         -1.6633628287       -1.9735092329        1.0249832525
 H         -1.7351897653        0.1085566417        2.1043828099
 H         -3.1263647353       -0.5934664669        2.9710992940
 H         -5.2810318694       -0.5038074050        1.9480231612
 H         -6.7206910974        0.1148186296        0.0465003241
 H         -5.7008289263        0.7576146994       -2.1105482799
 H         -3.2453953945        0.7642700612       -2.3527346091
 H         -2.4051861589        2.5547677972        0.1024948459
 H         -1.1202289855        4.6193359536        0.5034564572
 H          1.3496392637        4.5821235010        0.3747976035
 H          2.5230975251        2.4751713187       -0.1267119155
 H          3.2405408122        0.1447187147       -2.4712616062
 H          5.6947827781        0.0469255474       -2.2428512835
 H          6.7136112003       -0.1501685814       -0.0003768053
 H          5.2721711795       -0.2682576517        1.9949011540
 H          3.1044406401       -0.6288122820        2.9578685196
 H          1.6907317826       -0.8285265241        1.8892272338
 H          1.7323469705        1.5039246402        1.7730982514
 H          2.3987528903       -2.3719782145       -1.0428930339
 H          1.1127829487       -4.4057152217       -1.5718955765
 H         -1.3582636319       -4.3224276585       -1.6433723913
 H         -2.5309056569       -2.2111139342       -1.1581466091
